CMakeFiles/aerodyn_inflow_c_binding.dir/src/AeroDyn_Inflow_C_Binding.f90.obj
