CMakeFiles/aerodyn_driver.dir/src/AeroDyn_Driver.f90.obj
