# CMAKE generated file: DO NOT EDIT!
# Generated by "MinGW Makefiles" Generator, CMake Version 3.27

# Delete rule output on recipe failure.
.DELETE_ON_ERROR:

#=============================================================================
# Special targets provided by cmake.

# Disable implicit rules so canonical targets will work.
.SUFFIXES:

# Disable VCS-based implicit rules.
% : %,v

# Disable VCS-based implicit rules.
% : RCS/%

# Disable VCS-based implicit rules.
% : RCS/%,v

# Disable VCS-based implicit rules.
% : SCCS/s.%

# Disable VCS-based implicit rules.
% : s.%

.SUFFIXES: .hpux_make_needs_suffix_list

# Command-line flag to silence nested $(MAKE).
$(VERBOSE)MAKESILENT = -s

#Suppress display of executed commands.
$(VERBOSE).SILENT:

# A target that is always out of date.
cmake_force:
.PHONY : cmake_force

#=============================================================================
# Set environment variables for the build.

SHELL = cmd.exe

# The CMake executable.
CMAKE_COMMAND = "C:\Software\JetBrains\CLion 2023.3.3\bin\cmake\win\x64\bin\cmake.exe"

# The command to remove a file.
RM = "C:\Software\JetBrains\CLion 2023.3.3\bin\cmake\win\x64\bin\cmake.exe" -E rm -f

# Escaping for special characters.
EQUALS = =

# The top-level source directory on which CMake was run.
CMAKE_SOURCE_DIR = D:\Study\Graduation_Project\openfast

# The top-level build directory on which CMake was run.
CMAKE_BINARY_DIR = D:\Study\Graduation_Project\openfast\cmake-build-debug

# Include any dependencies generated for this target.
include modules/aerodyn/CMakeFiles/aerodyn_driver_subs.dir/depend.make
# Include any dependencies generated by the compiler for this target.
include modules/aerodyn/CMakeFiles/aerodyn_driver_subs.dir/compiler_depend.make

# Include the progress variables for this target.
include modules/aerodyn/CMakeFiles/aerodyn_driver_subs.dir/progress.make

# Include the compile flags for this target's objects.
include modules/aerodyn/CMakeFiles/aerodyn_driver_subs.dir/flags.make

modules/aerodyn/CMakeFiles/aerodyn_driver_subs.dir/src/AeroDyn_Driver_Subs.f90.obj: modules/aerodyn/CMakeFiles/aerodyn_driver_subs.dir/flags.make
modules/aerodyn/CMakeFiles/aerodyn_driver_subs.dir/src/AeroDyn_Driver_Subs.f90.obj: modules/aerodyn/CMakeFiles/aerodyn_driver_subs.dir/includes_Fortran.rsp
modules/aerodyn/CMakeFiles/aerodyn_driver_subs.dir/src/AeroDyn_Driver_Subs.f90.obj: D:/Study/Graduation_Project/openfast/modules/aerodyn/src/AeroDyn_Driver_Subs.f90
	@$(CMAKE_COMMAND) -E cmake_echo_color "--switch=$(COLOR)" --green --progress-dir=D:\Study\Graduation_Project\openfast\cmake-build-debug\CMakeFiles --progress-num=$(CMAKE_PROGRESS_1) "Building Fortran object modules/aerodyn/CMakeFiles/aerodyn_driver_subs.dir/src/AeroDyn_Driver_Subs.f90.obj"
	cd /d D:\Study\Graduation_Project\openfast\cmake-build-debug\modules\aerodyn && C:\Software\msys64\mingw64\bin\gfortran.exe $(Fortran_DEFINES) $(Fortran_INCLUDES) $(Fortran_FLAGS) -c D:\Study\Graduation_Project\openfast\modules\aerodyn\src\AeroDyn_Driver_Subs.f90 -o CMakeFiles\aerodyn_driver_subs.dir\src\AeroDyn_Driver_Subs.f90.obj

modules/aerodyn/CMakeFiles/aerodyn_driver_subs.dir/src/AeroDyn_Driver_Subs.f90.i: cmake_force
	@$(CMAKE_COMMAND) -E cmake_echo_color "--switch=$(COLOR)" --green "Preprocessing Fortran source to CMakeFiles/aerodyn_driver_subs.dir/src/AeroDyn_Driver_Subs.f90.i"
	cd /d D:\Study\Graduation_Project\openfast\cmake-build-debug\modules\aerodyn && C:\Software\msys64\mingw64\bin\gfortran.exe $(Fortran_DEFINES) $(Fortran_INCLUDES) $(Fortran_FLAGS) -E D:\Study\Graduation_Project\openfast\modules\aerodyn\src\AeroDyn_Driver_Subs.f90 > CMakeFiles\aerodyn_driver_subs.dir\src\AeroDyn_Driver_Subs.f90.i

modules/aerodyn/CMakeFiles/aerodyn_driver_subs.dir/src/AeroDyn_Driver_Subs.f90.s: cmake_force
	@$(CMAKE_COMMAND) -E cmake_echo_color "--switch=$(COLOR)" --green "Compiling Fortran source to assembly CMakeFiles/aerodyn_driver_subs.dir/src/AeroDyn_Driver_Subs.f90.s"
	cd /d D:\Study\Graduation_Project\openfast\cmake-build-debug\modules\aerodyn && C:\Software\msys64\mingw64\bin\gfortran.exe $(Fortran_DEFINES) $(Fortran_INCLUDES) $(Fortran_FLAGS) -S D:\Study\Graduation_Project\openfast\modules\aerodyn\src\AeroDyn_Driver_Subs.f90 -o CMakeFiles\aerodyn_driver_subs.dir\src\AeroDyn_Driver_Subs.f90.s

modules/aerodyn/CMakeFiles/aerodyn_driver_subs.dir/src/AeroDyn_Driver_Types.f90.obj: modules/aerodyn/CMakeFiles/aerodyn_driver_subs.dir/flags.make
modules/aerodyn/CMakeFiles/aerodyn_driver_subs.dir/src/AeroDyn_Driver_Types.f90.obj: modules/aerodyn/CMakeFiles/aerodyn_driver_subs.dir/includes_Fortran.rsp
modules/aerodyn/CMakeFiles/aerodyn_driver_subs.dir/src/AeroDyn_Driver_Types.f90.obj: D:/Study/Graduation_Project/openfast/modules/aerodyn/src/AeroDyn_Driver_Types.f90
	@$(CMAKE_COMMAND) -E cmake_echo_color "--switch=$(COLOR)" --green --progress-dir=D:\Study\Graduation_Project\openfast\cmake-build-debug\CMakeFiles --progress-num=$(CMAKE_PROGRESS_2) "Building Fortran object modules/aerodyn/CMakeFiles/aerodyn_driver_subs.dir/src/AeroDyn_Driver_Types.f90.obj"
	cd /d D:\Study\Graduation_Project\openfast\cmake-build-debug\modules\aerodyn && C:\Software\msys64\mingw64\bin\gfortran.exe $(Fortran_DEFINES) $(Fortran_INCLUDES) $(Fortran_FLAGS) -c D:\Study\Graduation_Project\openfast\modules\aerodyn\src\AeroDyn_Driver_Types.f90 -o CMakeFiles\aerodyn_driver_subs.dir\src\AeroDyn_Driver_Types.f90.obj

modules/aerodyn/CMakeFiles/aerodyn_driver_subs.dir/src/AeroDyn_Driver_Types.f90.i: cmake_force
	@$(CMAKE_COMMAND) -E cmake_echo_color "--switch=$(COLOR)" --green "Preprocessing Fortran source to CMakeFiles/aerodyn_driver_subs.dir/src/AeroDyn_Driver_Types.f90.i"
	cd /d D:\Study\Graduation_Project\openfast\cmake-build-debug\modules\aerodyn && C:\Software\msys64\mingw64\bin\gfortran.exe $(Fortran_DEFINES) $(Fortran_INCLUDES) $(Fortran_FLAGS) -E D:\Study\Graduation_Project\openfast\modules\aerodyn\src\AeroDyn_Driver_Types.f90 > CMakeFiles\aerodyn_driver_subs.dir\src\AeroDyn_Driver_Types.f90.i

modules/aerodyn/CMakeFiles/aerodyn_driver_subs.dir/src/AeroDyn_Driver_Types.f90.s: cmake_force
	@$(CMAKE_COMMAND) -E cmake_echo_color "--switch=$(COLOR)" --green "Compiling Fortran source to assembly CMakeFiles/aerodyn_driver_subs.dir/src/AeroDyn_Driver_Types.f90.s"
	cd /d D:\Study\Graduation_Project\openfast\cmake-build-debug\modules\aerodyn && C:\Software\msys64\mingw64\bin\gfortran.exe $(Fortran_DEFINES) $(Fortran_INCLUDES) $(Fortran_FLAGS) -S D:\Study\Graduation_Project\openfast\modules\aerodyn\src\AeroDyn_Driver_Types.f90 -o CMakeFiles\aerodyn_driver_subs.dir\src\AeroDyn_Driver_Types.f90.s

# Object files for target aerodyn_driver_subs
aerodyn_driver_subs_OBJECTS = \
"CMakeFiles/aerodyn_driver_subs.dir/src/AeroDyn_Driver_Subs.f90.obj" \
"CMakeFiles/aerodyn_driver_subs.dir/src/AeroDyn_Driver_Types.f90.obj"

# External object files for target aerodyn_driver_subs
aerodyn_driver_subs_EXTERNAL_OBJECTS =

modules/aerodyn/libaerodyn_driver_subs.a: modules/aerodyn/CMakeFiles/aerodyn_driver_subs.dir/src/AeroDyn_Driver_Subs.f90.obj
modules/aerodyn/libaerodyn_driver_subs.a: modules/aerodyn/CMakeFiles/aerodyn_driver_subs.dir/src/AeroDyn_Driver_Types.f90.obj
modules/aerodyn/libaerodyn_driver_subs.a: modules/aerodyn/CMakeFiles/aerodyn_driver_subs.dir/build.make
modules/aerodyn/libaerodyn_driver_subs.a: modules/aerodyn/CMakeFiles/aerodyn_driver_subs.dir/link.txt
	@$(CMAKE_COMMAND) -E cmake_echo_color "--switch=$(COLOR)" --green --bold --progress-dir=D:\Study\Graduation_Project\openfast\cmake-build-debug\CMakeFiles --progress-num=$(CMAKE_PROGRESS_3) "Linking Fortran static library libaerodyn_driver_subs.a"
	cd /d D:\Study\Graduation_Project\openfast\cmake-build-debug\modules\aerodyn && $(CMAKE_COMMAND) -P CMakeFiles\aerodyn_driver_subs.dir\cmake_clean_target.cmake
	cd /d D:\Study\Graduation_Project\openfast\cmake-build-debug\modules\aerodyn && $(CMAKE_COMMAND) -E cmake_link_script CMakeFiles\aerodyn_driver_subs.dir\link.txt --verbose=$(VERBOSE)

# Rule to build all files generated by this target.
modules/aerodyn/CMakeFiles/aerodyn_driver_subs.dir/build: modules/aerodyn/libaerodyn_driver_subs.a
.PHONY : modules/aerodyn/CMakeFiles/aerodyn_driver_subs.dir/build

modules/aerodyn/CMakeFiles/aerodyn_driver_subs.dir/clean:
	cd /d D:\Study\Graduation_Project\openfast\cmake-build-debug\modules\aerodyn && $(CMAKE_COMMAND) -P CMakeFiles\aerodyn_driver_subs.dir\cmake_clean.cmake
.PHONY : modules/aerodyn/CMakeFiles/aerodyn_driver_subs.dir/clean

modules/aerodyn/CMakeFiles/aerodyn_driver_subs.dir/depend:
	$(CMAKE_COMMAND) -E cmake_depends "MinGW Makefiles" D:\Study\Graduation_Project\openfast D:\Study\Graduation_Project\openfast\modules\aerodyn D:\Study\Graduation_Project\openfast\cmake-build-debug D:\Study\Graduation_Project\openfast\cmake-build-debug\modules\aerodyn D:\Study\Graduation_Project\openfast\cmake-build-debug\modules\aerodyn\CMakeFiles\aerodyn_driver_subs.dir\DependInfo.cmake "--color=$(COLOR)"
.PHONY : modules/aerodyn/CMakeFiles/aerodyn_driver_subs.dir/depend

