C:\Software\msys64\mingw64\bin\ar.exe qc libaerodyn_driver_subs.a CMakeFiles/aerodyn_driver_subs.dir/src/AeroDyn_Driver_Subs.f90.obj CMakeFiles/aerodyn_driver_subs.dir/src/AeroDyn_Driver_Types.f90.obj
C:\Software\msys64\mingw64\bin\ranlib.exe libaerodyn_driver_subs.a
