# CMAKE generated file: DO NOT EDIT!
# Generated by "MinGW Makefiles" Generator, CMake Version 3.27

modules/aerodyn14/CMakeFiles/aerodyn14lib.dir/src/AeroDyn14.f90.obj
 D:/Study/Graduation_Project/openfast/modules/aerodyn14/src/AeroDyn14.f90
modules/aerodyn14/CMakeFiles/aerodyn14lib.dir/src/AeroDyn14_Types.f90.obj
 D:/Study/Graduation_Project/openfast/modules/aerodyn14/src/AeroDyn14_Types.f90
modules/aerodyn14/CMakeFiles/aerodyn14lib.dir/src/AeroSubs.f90.obj
 D:/Study/Graduation_Project/openfast/modules/aerodyn14/src/AeroSubs.f90
modules/aerodyn14/CMakeFiles/aerodyn14lib.dir/src/DWM.f90.obj
 D:/Study/Graduation_Project/openfast/modules/aerodyn14/src/DWM.f90
modules/aerodyn14/CMakeFiles/aerodyn14lib.dir/src/DWM_Types.f90.obj
 D:/Study/Graduation_Project/openfast/modules/aerodyn14/src/DWM_Types.f90
modules/aerodyn14/CMakeFiles/aerodyn14lib.dir/src/DWM_Wake_Sub_ver2.f90.obj
 D:/Study/Graduation_Project/openfast/modules/aerodyn14/src/DWM_Wake_Sub_ver2.f90
modules/aerodyn14/CMakeFiles/aerodyn14lib.dir/src/GenSubs.f90.obj
 D:/Study/Graduation_Project/openfast/modules/aerodyn14/src/GenSubs.f90
