C:\Software\msys64\mingw64\bin\ar.exe qc libhydrodynlib.a CMakeFiles/hydrodynlib.dir/src/Conv_Radiation.f90.obj CMakeFiles/hydrodynlib.dir/src/Current.f90.obj CMakeFiles/hydrodynlib.dir/src/HydroDyn.f90.obj CMakeFiles/hydrodynlib.dir/src/HydroDyn_Input.f90.obj CMakeFiles/hydrodynlib.dir/src/HydroDyn_Output.f90.obj CMakeFiles/hydrodynlib.dir/src/Morison.f90.obj CMakeFiles/hydrodynlib.dir/src/Morison_Output.f90.obj CMakeFiles/hydrodynlib.dir/src/SS_Radiation.f90.obj CMakeFiles/hydrodynlib.dir/src/SS_Excitation.f90.obj CMakeFiles/hydrodynlib.dir/src/UserWaves.f90.obj CMakeFiles/hydrodynlib.dir/src/WAMIT.f90.obj CMakeFiles/hydrodynlib.dir/src/WAMIT2.f90.obj CMakeFiles/hydrodynlib.dir/src/WAMIT_Interp.f90.obj CMakeFiles/hydrodynlib.dir/src/Waves.f90.obj CMakeFiles/hydrodynlib.dir/src/Waves2.f90.obj CMakeFiles/hydrodynlib.dir/src/Waves2_Output.f90.obj CMakeFiles/hydrodynlib.dir/src/Conv_Radiation_Types.f90.obj CMakeFiles/hydrodynlib.dir/src/Current_Types.f90.obj CMakeFiles/hydrodynlib.dir/src/HydroDyn_Types.f90.obj CMakeFiles/hydrodynlib.dir/src/Morison_Types.f90.obj CMakeFiles/hydrodynlib.dir/src/SS_Radiation_Types.f90.obj CMakeFiles/hydrodynlib.dir/src/SS_Excitation_Types.f90.obj CMakeFiles/hydrodynlib.dir/src/WAMIT_Types.f90.obj CMakeFiles/hydrodynlib.dir/src/WAMIT2_Types.f90.obj CMakeFiles/hydrodynlib.dir/src/Waves_Types.f90.obj CMakeFiles/hydrodynlib.dir/src/Waves2_Types.f90.obj
C:\Software\msys64\mingw64\bin\ranlib.exe libhydrodynlib.a
