# CMAKE generated file: DO NOT EDIT!
# Generated by "MinGW Makefiles" Generator, CMake Version 3.27

# Delete rule output on recipe failure.
.DELETE_ON_ERROR:

#=============================================================================
# Special targets provided by cmake.

# Disable implicit rules so canonical targets will work.
.SUFFIXES:

# Disable VCS-based implicit rules.
% : %,v

# Disable VCS-based implicit rules.
% : RCS/%

# Disable VCS-based implicit rules.
% : RCS/%,v

# Disable VCS-based implicit rules.
% : SCCS/s.%

# Disable VCS-based implicit rules.
% : s.%

.SUFFIXES: .hpux_make_needs_suffix_list

# Command-line flag to silence nested $(MAKE).
$(VERBOSE)MAKESILENT = -s

#Suppress display of executed commands.
$(VERBOSE).SILENT:

# A target that is always out of date.
cmake_force:
.PHONY : cmake_force

#=============================================================================
# Set environment variables for the build.

SHELL = cmd.exe

# The CMake executable.
CMAKE_COMMAND = "C:\Software\JetBrains\CLion 2023.3.3\bin\cmake\win\x64\bin\cmake.exe"

# The command to remove a file.
RM = "C:\Software\JetBrains\CLion 2023.3.3\bin\cmake\win\x64\bin\cmake.exe" -E rm -f

# Escaping for special characters.
EQUALS = =

# The top-level source directory on which CMake was run.
CMAKE_SOURCE_DIR = D:\Study\Graduation_Project\openfast

# The top-level build directory on which CMake was run.
CMAKE_BINARY_DIR = D:\Study\Graduation_Project\openfast\cmake-build-debug

# Include any dependencies generated for this target.
include modules/hydrodyn/CMakeFiles/hydrodyn_driver.dir/depend.make
# Include any dependencies generated by the compiler for this target.
include modules/hydrodyn/CMakeFiles/hydrodyn_driver.dir/compiler_depend.make

# Include the progress variables for this target.
include modules/hydrodyn/CMakeFiles/hydrodyn_driver.dir/progress.make

# Include the compile flags for this target's objects.
include modules/hydrodyn/CMakeFiles/hydrodyn_driver.dir/flags.make

modules/hydrodyn/CMakeFiles/hydrodyn_driver.dir/src/HydroDyn_DriverCode.f90.obj: modules/hydrodyn/CMakeFiles/hydrodyn_driver.dir/flags.make
modules/hydrodyn/CMakeFiles/hydrodyn_driver.dir/src/HydroDyn_DriverCode.f90.obj: modules/hydrodyn/CMakeFiles/hydrodyn_driver.dir/includes_Fortran.rsp
modules/hydrodyn/CMakeFiles/hydrodyn_driver.dir/src/HydroDyn_DriverCode.f90.obj: D:/Study/Graduation_Project/openfast/modules/hydrodyn/src/HydroDyn_DriverCode.f90
	@$(CMAKE_COMMAND) -E cmake_echo_color "--switch=$(COLOR)" --green --progress-dir=D:\Study\Graduation_Project\openfast\cmake-build-debug\CMakeFiles --progress-num=$(CMAKE_PROGRESS_1) "Building Fortran object modules/hydrodyn/CMakeFiles/hydrodyn_driver.dir/src/HydroDyn_DriverCode.f90.obj"
	cd /d D:\Study\Graduation_Project\openfast\cmake-build-debug\modules\hydrodyn && C:\Software\msys64\mingw64\bin\gfortran.exe $(Fortran_DEFINES) $(Fortran_INCLUDES) $(Fortran_FLAGS) -c D:\Study\Graduation_Project\openfast\modules\hydrodyn\src\HydroDyn_DriverCode.f90 -o CMakeFiles\hydrodyn_driver.dir\src\HydroDyn_DriverCode.f90.obj

modules/hydrodyn/CMakeFiles/hydrodyn_driver.dir/src/HydroDyn_DriverCode.f90.i: cmake_force
	@$(CMAKE_COMMAND) -E cmake_echo_color "--switch=$(COLOR)" --green "Preprocessing Fortran source to CMakeFiles/hydrodyn_driver.dir/src/HydroDyn_DriverCode.f90.i"
	cd /d D:\Study\Graduation_Project\openfast\cmake-build-debug\modules\hydrodyn && C:\Software\msys64\mingw64\bin\gfortran.exe $(Fortran_DEFINES) $(Fortran_INCLUDES) $(Fortran_FLAGS) -E D:\Study\Graduation_Project\openfast\modules\hydrodyn\src\HydroDyn_DriverCode.f90 > CMakeFiles\hydrodyn_driver.dir\src\HydroDyn_DriverCode.f90.i

modules/hydrodyn/CMakeFiles/hydrodyn_driver.dir/src/HydroDyn_DriverCode.f90.s: cmake_force
	@$(CMAKE_COMMAND) -E cmake_echo_color "--switch=$(COLOR)" --green "Compiling Fortran source to assembly CMakeFiles/hydrodyn_driver.dir/src/HydroDyn_DriverCode.f90.s"
	cd /d D:\Study\Graduation_Project\openfast\cmake-build-debug\modules\hydrodyn && C:\Software\msys64\mingw64\bin\gfortran.exe $(Fortran_DEFINES) $(Fortran_INCLUDES) $(Fortran_FLAGS) -S D:\Study\Graduation_Project\openfast\modules\hydrodyn\src\HydroDyn_DriverCode.f90 -o CMakeFiles\hydrodyn_driver.dir\src\HydroDyn_DriverCode.f90.s

# Object files for target hydrodyn_driver
hydrodyn_driver_OBJECTS = \
"CMakeFiles/hydrodyn_driver.dir/src/HydroDyn_DriverCode.f90.obj"

# External object files for target hydrodyn_driver
hydrodyn_driver_EXTERNAL_OBJECTS =

modules/hydrodyn/hydrodyn_driver.exe: modules/hydrodyn/CMakeFiles/hydrodyn_driver.dir/src/HydroDyn_DriverCode.f90.obj
modules/hydrodyn/hydrodyn_driver.exe: modules/hydrodyn/CMakeFiles/hydrodyn_driver.dir/build.make
modules/hydrodyn/hydrodyn_driver.exe: C:/Software/msys64/mingw64/lib/libgomp.dll.a
modules/hydrodyn/hydrodyn_driver.exe: C:/Software/msys64/mingw64/lib/libmingwthrd.a
modules/hydrodyn/hydrodyn_driver.exe: C:/Software/msys64/mingw64/lib/libmingwthrd.a
modules/hydrodyn/hydrodyn_driver.exe: C:/Software/msys64/mingw64/lib/libmingwthrd.a
modules/hydrodyn/hydrodyn_driver.exe: C:/Software/msys64/mingw64/lib/libgomp.dll.a
modules/hydrodyn/hydrodyn_driver.exe: C:/Software/msys64/mingw64/lib/libmingwthrd.a
modules/hydrodyn/hydrodyn_driver.exe: C:/Software/msys64/mingw64/lib/libmingwthrd.a
modules/hydrodyn/hydrodyn_driver.exe: C:/Software/msys64/mingw64/lib/libgomp.dll.a
modules/hydrodyn/hydrodyn_driver.exe: C:/Software/msys64/mingw64/lib/libmingwthrd.a
modules/hydrodyn/hydrodyn_driver.exe: C:/Software/msys64/mingw64/lib/libmingwthrd.a
modules/hydrodyn/hydrodyn_driver.exe: modules/hydrodyn/libhydrodynlib.a
modules/hydrodyn/hydrodyn_driver.exe: modules/version/libversioninfolib.a
modules/hydrodyn/hydrodyn_driver.exe: modules/nwtc-library/libnwtclibs.a
modules/hydrodyn/hydrodyn_driver.exe: C:/Software/msys64/mingw64/lib/libgomp.dll.a
modules/hydrodyn/hydrodyn_driver.exe: C:/Software/msys64/mingw64/lib/libmingwthrd.a
modules/hydrodyn/hydrodyn_driver.exe: C:/Software/msys64/mingw64/lib/libgomp.dll.a
modules/hydrodyn/hydrodyn_driver.exe: C:/Software/msys64/mingw64/lib/libmingwthrd.a
modules/hydrodyn/hydrodyn_driver.exe: C:/Software/msys64/mingw64/lib/liblapack.dll.a
modules/hydrodyn/hydrodyn_driver.exe: C:/Software/msys64/mingw64/lib/libblas.dll.a
modules/hydrodyn/hydrodyn_driver.exe: modules/hydrodyn/CMakeFiles/hydrodyn_driver.dir/linkLibs.rsp
modules/hydrodyn/hydrodyn_driver.exe: modules/hydrodyn/CMakeFiles/hydrodyn_driver.dir/objects1.rsp
modules/hydrodyn/hydrodyn_driver.exe: modules/hydrodyn/CMakeFiles/hydrodyn_driver.dir/link.txt
	@$(CMAKE_COMMAND) -E cmake_echo_color "--switch=$(COLOR)" --green --bold --progress-dir=D:\Study\Graduation_Project\openfast\cmake-build-debug\CMakeFiles --progress-num=$(CMAKE_PROGRESS_2) "Linking Fortran executable hydrodyn_driver.exe"
	cd /d D:\Study\Graduation_Project\openfast\cmake-build-debug\modules\hydrodyn && $(CMAKE_COMMAND) -E cmake_link_script CMakeFiles\hydrodyn_driver.dir\link.txt --verbose=$(VERBOSE)

# Rule to build all files generated by this target.
modules/hydrodyn/CMakeFiles/hydrodyn_driver.dir/build: modules/hydrodyn/hydrodyn_driver.exe
.PHONY : modules/hydrodyn/CMakeFiles/hydrodyn_driver.dir/build

modules/hydrodyn/CMakeFiles/hydrodyn_driver.dir/clean:
	cd /d D:\Study\Graduation_Project\openfast\cmake-build-debug\modules\hydrodyn && $(CMAKE_COMMAND) -P CMakeFiles\hydrodyn_driver.dir\cmake_clean.cmake
.PHONY : modules/hydrodyn/CMakeFiles/hydrodyn_driver.dir/clean

modules/hydrodyn/CMakeFiles/hydrodyn_driver.dir/depend:
	$(CMAKE_COMMAND) -E cmake_depends "MinGW Makefiles" D:\Study\Graduation_Project\openfast D:\Study\Graduation_Project\openfast\modules\hydrodyn D:\Study\Graduation_Project\openfast\cmake-build-debug D:\Study\Graduation_Project\openfast\cmake-build-debug\modules\hydrodyn D:\Study\Graduation_Project\openfast\cmake-build-debug\modules\hydrodyn\CMakeFiles\hydrodyn_driver.dir\DependInfo.cmake "--color=$(COLOR)"
.PHONY : modules/hydrodyn/CMakeFiles/hydrodyn_driver.dir/depend

