CMakeFiles/hydrodyn_driver.dir/src/HydroDyn_DriverCode.f90.obj
