CMakeFiles/hydrodyn_c_binding.dir/src/HydroDyn_C_Binding.f90.obj
