<?xml version="1.0" encoding="UTF-8"?>
<CodeBlocks_project_file>
	<FileVersion major="1" minor="6"/>
	<Project>
		<Option title="OpenFAST_UnitTest"/>
		<Option makefile_is_custom="1"/>
		<Option compiler="gcc"/>
		<Option virtualFolders="CMake Files\;CMake Files\reg_tests\;CMake Files\reg_tests\r-test\;CMake Files\reg_tests\r-test\glue-codes\;CMake Files\reg_tests\r-test\glue-codes\openfast\;CMake Files\reg_tests\r-test\glue-codes\openfast\5MW_Baseline\;CMake Files\reg_tests\r-test\glue-codes\openfast\5MW_Baseline\ServoData\;CMake Files\reg_tests\r-test\glue-codes\openfast\5MW_Baseline\ServoData\DISCON\;CMake Files\reg_tests\r-test\glue-codes\openfast\5MW_Baseline\ServoData\DISCON_ITI\;CMake Files\reg_tests\r-test\glue-codes\openfast\5MW_Baseline\ServoData\DISCON_OC3\;CMake Files\cmake\;CMake Files\modules\;CMake Files\modules\nwtc-library\;CMake Files\modules\version\;CMake Files\modules\inflowwind\;CMake Files\modules\aerodyn\;CMake Files\modules\aerodyn14\;CMake Files\modules\servodyn\;CMake Files\modules\elastodyn\;CMake Files\modules\beamdyn\;CMake Files\modules\subdyn\;CMake Files\modules\hydrodyn\;CMake Files\modules\orcaflex-interface\;CMake Files\modules\extptfm\;CMake Files\modules\feamooring\;CMake Files\modules\moordyn\;CMake Files\modules\icedyn\;CMake Files\modules\icefloe\;CMake Files\modules\wakedynamics\;CMake Files\modules\awae\;CMake Files\modules\map\;CMake Files\modules\turbsim\;CMake Files\modules\supercontroller\;CMake Files\modules\openfoam\;CMake Files\modules\openfast-library\;CMake Files\.git\;CMake Files\.git\refs\;CMake Files\.git\refs\heads\;CMake Files\glue-codes\;CMake Files\glue-codes\openfast\;CMake Files\unit_tests\;CMake Files\unit_tests\beamdyn\;CMake Files\unit_tests\nwtc-library\;CMake Files\unit_tests\aerodyn\;CMake Files\unit_tests\inflowwind\;CMake Files\unit_tests\version\;CMake Files\cmake-build-debug\;CMake Files\cmake-build-debug\unit_tests\;CMake Files\cmake-build-debug\unit_tests\pfunit-tmp\;"/>
		<Build>
			<Target title="all">
				<Option working_dir="D:/Study/Graduation_Project/openfast/cmake-build-debug/unit_tests"/>
				<Option type="4"/>
				<MakeCommands>
					<Build command="C:/Software/msys64/mingw64/bin/mingw32-make.exe -f &quot;D:/Study/Graduation_Project/openfast/cmake-build-debug/unit_tests/Makefile&quot;  VERBOSE=1 all"/>
					<CompileFile command="C:/Software/msys64/mingw64/bin/mingw32-make.exe -f &quot;D:/Study/Graduation_Project/openfast/cmake-build-debug/unit_tests/Makefile&quot;  VERBOSE=1 &quot;$file&quot;"/>
					<Clean command="C:/Software/msys64/mingw64/bin/mingw32-make.exe -f &quot;D:/Study/Graduation_Project/openfast/cmake-build-debug/unit_tests/Makefile&quot;  VERBOSE=1 clean"/>
					<DistClean command="C:/Software/msys64/mingw64/bin/mingw32-make.exe -f &quot;D:/Study/Graduation_Project/openfast/cmake-build-debug/unit_tests/Makefile&quot;  VERBOSE=1 clean"/>
				</MakeCommands>
			</Target>
			<Target title="pfunit">
				<Option working_dir="D:/Study/Graduation_Project/openfast/cmake-build-debug/unit_tests"/>
				<Option type="4"/>
				<MakeCommands>
					<Build command="C:/Software/msys64/mingw64/bin/mingw32-make.exe -f &quot;D:/Study/Graduation_Project/openfast/cmake-build-debug/unit_tests/Makefile&quot;  VERBOSE=1 pfunit"/>
					<CompileFile command="C:/Software/msys64/mingw64/bin/mingw32-make.exe -f &quot;D:/Study/Graduation_Project/openfast/cmake-build-debug/unit_tests/Makefile&quot;  VERBOSE=1 &quot;$file&quot;"/>
					<Clean command="C:/Software/msys64/mingw64/bin/mingw32-make.exe -f &quot;D:/Study/Graduation_Project/openfast/cmake-build-debug/unit_tests/Makefile&quot;  VERBOSE=1 clean"/>
					<DistClean command="C:/Software/msys64/mingw64/bin/mingw32-make.exe -f &quot;D:/Study/Graduation_Project/openfast/cmake-build-debug/unit_tests/Makefile&quot;  VERBOSE=1 clean"/>
				</MakeCommands>
			</Target>
			<Target title="unit_tests">
				<Option working_dir="D:/Study/Graduation_Project/openfast/cmake-build-debug/unit_tests"/>
				<Option type="4"/>
				<MakeCommands>
					<Build command="C:/Software/msys64/mingw64/bin/mingw32-make.exe -f &quot;D:/Study/Graduation_Project/openfast/cmake-build-debug/unit_tests/Makefile&quot;  VERBOSE=1 unit_tests"/>
					<CompileFile command="C:/Software/msys64/mingw64/bin/mingw32-make.exe -f &quot;D:/Study/Graduation_Project/openfast/cmake-build-debug/unit_tests/Makefile&quot;  VERBOSE=1 &quot;$file&quot;"/>
					<Clean command="C:/Software/msys64/mingw64/bin/mingw32-make.exe -f &quot;D:/Study/Graduation_Project/openfast/cmake-build-debug/unit_tests/Makefile&quot;  VERBOSE=1 clean"/>
					<DistClean command="C:/Software/msys64/mingw64/bin/mingw32-make.exe -f &quot;D:/Study/Graduation_Project/openfast/cmake-build-debug/unit_tests/Makefile&quot;  VERBOSE=1 clean"/>
				</MakeCommands>
			</Target>
			<Target title="beamdyn_utest">
				<Option output="D:/Study/Graduation_Project/openfast/cmake-build-debug/unit_tests/beamdyn/beamdyn_utest.exe" prefix_auto="0" extension_auto="0"/>
				<Option working_dir="D:/Study/Graduation_Project/openfast/cmake-build-debug/unit_tests/beamdyn"/>
				<Option object_output="./"/>
				<Option type="1"/>
				<Option compiler="gcc"/>
				<Compiler>
					<Add option="-DHAS_FORTRAN2008_FEATURES"/>
					<Add option="-DOPENFAST_DOUBLE_PRECISION"/>
					<Add directory="D:/Study/Graduation_Project/openfast/cmake-build-debug/ftnmods"/>
					<Add directory="D:/Study/Graduation_Project/openfast/unit_tests"/>
					<Add directory="D:/Study/Graduation_Project/openfast/cmake-build-debug/unit_tests/pfunit/mod"/>
					<Add directory="D:/Study/Graduation_Project/openfast/cmake-build-debug/unit_tests/tests"/>
					<Add directory="D:/Study/Graduation_Project/openfast/cmake-build-debug/unit_tests/tests/beamdyn"/>
					<Add directory="C:/Software/msys64/mingw64/bin/../lib/gcc/x86_64-w64-mingw32/13.2.0/../../../../include/c++/13.2.0"/>
					<Add directory="C:/Software/msys64/mingw64/bin/../lib/gcc/x86_64-w64-mingw32/13.2.0/../../../../include/c++/13.2.0/x86_64-w64-mingw32"/>
					<Add directory="C:/Software/msys64/mingw64/bin/../lib/gcc/x86_64-w64-mingw32/13.2.0/../../../../include/c++/13.2.0/backward"/>
					<Add directory="C:/Software/msys64/mingw64/bin/../lib/gcc/x86_64-w64-mingw32/13.2.0/include"/>
					<Add directory="C:/Software/msys64/mingw64/bin/../lib/gcc/x86_64-w64-mingw32/13.2.0/../../../../include"/>
					<Add directory="C:/Software/msys64/mingw64/bin/../lib/gcc/x86_64-w64-mingw32/13.2.0/include-fixed"/>
				</Compiler>
				<MakeCommands>
					<Build command="C:/Software/msys64/mingw64/bin/mingw32-make.exe -f &quot;D:/Study/Graduation_Project/openfast/cmake-build-debug/unit_tests/beamdyn/Makefile&quot;  VERBOSE=1 beamdyn_utest"/>
					<CompileFile command="C:/Software/msys64/mingw64/bin/mingw32-make.exe -f &quot;D:/Study/Graduation_Project/openfast/cmake-build-debug/unit_tests/beamdyn/Makefile&quot;  VERBOSE=1 &quot;$file&quot;"/>
					<Clean command="C:/Software/msys64/mingw64/bin/mingw32-make.exe -f &quot;D:/Study/Graduation_Project/openfast/cmake-build-debug/unit_tests/beamdyn/Makefile&quot;  VERBOSE=1 clean"/>
					<DistClean command="C:/Software/msys64/mingw64/bin/mingw32-make.exe -f &quot;D:/Study/Graduation_Project/openfast/cmake-build-debug/unit_tests/beamdyn/Makefile&quot;  VERBOSE=1 clean"/>
				</MakeCommands>
			</Target>
			<Target title="beamdyn_utest/fast">
				<Option output="D:/Study/Graduation_Project/openfast/cmake-build-debug/unit_tests/beamdyn/beamdyn_utest.exe" prefix_auto="0" extension_auto="0"/>
				<Option working_dir="D:/Study/Graduation_Project/openfast/cmake-build-debug/unit_tests/beamdyn"/>
				<Option object_output="./"/>
				<Option type="1"/>
				<Option compiler="gcc"/>
				<Compiler>
					<Add option="-DHAS_FORTRAN2008_FEATURES"/>
					<Add option="-DOPENFAST_DOUBLE_PRECISION"/>
					<Add directory="D:/Study/Graduation_Project/openfast/cmake-build-debug/ftnmods"/>
					<Add directory="D:/Study/Graduation_Project/openfast/unit_tests"/>
					<Add directory="D:/Study/Graduation_Project/openfast/cmake-build-debug/unit_tests/pfunit/mod"/>
					<Add directory="D:/Study/Graduation_Project/openfast/cmake-build-debug/unit_tests/tests"/>
					<Add directory="D:/Study/Graduation_Project/openfast/cmake-build-debug/unit_tests/tests/beamdyn"/>
					<Add directory="C:/Software/msys64/mingw64/bin/../lib/gcc/x86_64-w64-mingw32/13.2.0/../../../../include/c++/13.2.0"/>
					<Add directory="C:/Software/msys64/mingw64/bin/../lib/gcc/x86_64-w64-mingw32/13.2.0/../../../../include/c++/13.2.0/x86_64-w64-mingw32"/>
					<Add directory="C:/Software/msys64/mingw64/bin/../lib/gcc/x86_64-w64-mingw32/13.2.0/../../../../include/c++/13.2.0/backward"/>
					<Add directory="C:/Software/msys64/mingw64/bin/../lib/gcc/x86_64-w64-mingw32/13.2.0/include"/>
					<Add directory="C:/Software/msys64/mingw64/bin/../lib/gcc/x86_64-w64-mingw32/13.2.0/../../../../include"/>
					<Add directory="C:/Software/msys64/mingw64/bin/../lib/gcc/x86_64-w64-mingw32/13.2.0/include-fixed"/>
				</Compiler>
				<MakeCommands>
					<Build command="C:/Software/msys64/mingw64/bin/mingw32-make.exe -f &quot;D:/Study/Graduation_Project/openfast/cmake-build-debug/unit_tests/beamdyn/Makefile&quot;  VERBOSE=1 beamdyn_utest/fast"/>
					<CompileFile command="C:/Software/msys64/mingw64/bin/mingw32-make.exe -f &quot;D:/Study/Graduation_Project/openfast/cmake-build-debug/unit_tests/beamdyn/Makefile&quot;  VERBOSE=1 &quot;$file&quot;"/>
					<Clean command="C:/Software/msys64/mingw64/bin/mingw32-make.exe -f &quot;D:/Study/Graduation_Project/openfast/cmake-build-debug/unit_tests/beamdyn/Makefile&quot;  VERBOSE=1 clean"/>
					<DistClean command="C:/Software/msys64/mingw64/bin/mingw32-make.exe -f &quot;D:/Study/Graduation_Project/openfast/cmake-build-debug/unit_tests/beamdyn/Makefile&quot;  VERBOSE=1 clean"/>
				</MakeCommands>
			</Target>
			<Target title="nwtc_library_utest">
				<Option output="D:/Study/Graduation_Project/openfast/cmake-build-debug/unit_tests/nwtc-library/nwtc_library_utest.exe" prefix_auto="0" extension_auto="0"/>
				<Option working_dir="D:/Study/Graduation_Project/openfast/cmake-build-debug/unit_tests/nwtc-library"/>
				<Option object_output="./"/>
				<Option type="1"/>
				<Option compiler="gcc"/>
				<Compiler>
					<Add option="-DHAS_FORTRAN2008_FEATURES"/>
					<Add option="-DOPENFAST_DOUBLE_PRECISION"/>
					<Add directory="D:/Study/Graduation_Project/openfast/cmake-build-debug/ftnmods"/>
					<Add directory="D:/Study/Graduation_Project/openfast/unit_tests"/>
					<Add directory="D:/Study/Graduation_Project/openfast/cmake-build-debug/unit_tests/pfunit/mod"/>
					<Add directory="D:/Study/Graduation_Project/openfast/cmake-build-debug/unit_tests/tests"/>
					<Add directory="D:/Study/Graduation_Project/openfast/cmake-build-debug/unit_tests/tests/nwtc-library"/>
					<Add directory="C:/Software/msys64/mingw64/bin/../lib/gcc/x86_64-w64-mingw32/13.2.0/../../../../include/c++/13.2.0"/>
					<Add directory="C:/Software/msys64/mingw64/bin/../lib/gcc/x86_64-w64-mingw32/13.2.0/../../../../include/c++/13.2.0/x86_64-w64-mingw32"/>
					<Add directory="C:/Software/msys64/mingw64/bin/../lib/gcc/x86_64-w64-mingw32/13.2.0/../../../../include/c++/13.2.0/backward"/>
					<Add directory="C:/Software/msys64/mingw64/bin/../lib/gcc/x86_64-w64-mingw32/13.2.0/include"/>
					<Add directory="C:/Software/msys64/mingw64/bin/../lib/gcc/x86_64-w64-mingw32/13.2.0/../../../../include"/>
					<Add directory="C:/Software/msys64/mingw64/bin/../lib/gcc/x86_64-w64-mingw32/13.2.0/include-fixed"/>
				</Compiler>
				<MakeCommands>
					<Build command="C:/Software/msys64/mingw64/bin/mingw32-make.exe -f &quot;D:/Study/Graduation_Project/openfast/cmake-build-debug/unit_tests/nwtc-library/Makefile&quot;  VERBOSE=1 nwtc_library_utest"/>
					<CompileFile command="C:/Software/msys64/mingw64/bin/mingw32-make.exe -f &quot;D:/Study/Graduation_Project/openfast/cmake-build-debug/unit_tests/nwtc-library/Makefile&quot;  VERBOSE=1 &quot;$file&quot;"/>
					<Clean command="C:/Software/msys64/mingw64/bin/mingw32-make.exe -f &quot;D:/Study/Graduation_Project/openfast/cmake-build-debug/unit_tests/nwtc-library/Makefile&quot;  VERBOSE=1 clean"/>
					<DistClean command="C:/Software/msys64/mingw64/bin/mingw32-make.exe -f &quot;D:/Study/Graduation_Project/openfast/cmake-build-debug/unit_tests/nwtc-library/Makefile&quot;  VERBOSE=1 clean"/>
				</MakeCommands>
			</Target>
			<Target title="nwtc_library_utest/fast">
				<Option output="D:/Study/Graduation_Project/openfast/cmake-build-debug/unit_tests/nwtc-library/nwtc_library_utest.exe" prefix_auto="0" extension_auto="0"/>
				<Option working_dir="D:/Study/Graduation_Project/openfast/cmake-build-debug/unit_tests/nwtc-library"/>
				<Option object_output="./"/>
				<Option type="1"/>
				<Option compiler="gcc"/>
				<Compiler>
					<Add option="-DHAS_FORTRAN2008_FEATURES"/>
					<Add option="-DOPENFAST_DOUBLE_PRECISION"/>
					<Add directory="D:/Study/Graduation_Project/openfast/cmake-build-debug/ftnmods"/>
					<Add directory="D:/Study/Graduation_Project/openfast/unit_tests"/>
					<Add directory="D:/Study/Graduation_Project/openfast/cmake-build-debug/unit_tests/pfunit/mod"/>
					<Add directory="D:/Study/Graduation_Project/openfast/cmake-build-debug/unit_tests/tests"/>
					<Add directory="D:/Study/Graduation_Project/openfast/cmake-build-debug/unit_tests/tests/nwtc-library"/>
					<Add directory="C:/Software/msys64/mingw64/bin/../lib/gcc/x86_64-w64-mingw32/13.2.0/../../../../include/c++/13.2.0"/>
					<Add directory="C:/Software/msys64/mingw64/bin/../lib/gcc/x86_64-w64-mingw32/13.2.0/../../../../include/c++/13.2.0/x86_64-w64-mingw32"/>
					<Add directory="C:/Software/msys64/mingw64/bin/../lib/gcc/x86_64-w64-mingw32/13.2.0/../../../../include/c++/13.2.0/backward"/>
					<Add directory="C:/Software/msys64/mingw64/bin/../lib/gcc/x86_64-w64-mingw32/13.2.0/include"/>
					<Add directory="C:/Software/msys64/mingw64/bin/../lib/gcc/x86_64-w64-mingw32/13.2.0/../../../../include"/>
					<Add directory="C:/Software/msys64/mingw64/bin/../lib/gcc/x86_64-w64-mingw32/13.2.0/include-fixed"/>
				</Compiler>
				<MakeCommands>
					<Build command="C:/Software/msys64/mingw64/bin/mingw32-make.exe -f &quot;D:/Study/Graduation_Project/openfast/cmake-build-debug/unit_tests/nwtc-library/Makefile&quot;  VERBOSE=1 nwtc_library_utest/fast"/>
					<CompileFile command="C:/Software/msys64/mingw64/bin/mingw32-make.exe -f &quot;D:/Study/Graduation_Project/openfast/cmake-build-debug/unit_tests/nwtc-library/Makefile&quot;  VERBOSE=1 &quot;$file&quot;"/>
					<Clean command="C:/Software/msys64/mingw64/bin/mingw32-make.exe -f &quot;D:/Study/Graduation_Project/openfast/cmake-build-debug/unit_tests/nwtc-library/Makefile&quot;  VERBOSE=1 clean"/>
					<DistClean command="C:/Software/msys64/mingw64/bin/mingw32-make.exe -f &quot;D:/Study/Graduation_Project/openfast/cmake-build-debug/unit_tests/nwtc-library/Makefile&quot;  VERBOSE=1 clean"/>
				</MakeCommands>
			</Target>
			<Target title="fvw_utest">
				<Option output="D:/Study/Graduation_Project/openfast/cmake-build-debug/unit_tests/aerodyn/fvw_utest.exe" prefix_auto="0" extension_auto="0"/>
				<Option working_dir="D:/Study/Graduation_Project/openfast/cmake-build-debug/unit_tests/aerodyn"/>
				<Option object_output="./"/>
				<Option type="1"/>
				<Option compiler="gcc"/>
				<Compiler>
					<Add option="-DHAS_FORTRAN2008_FEATURES"/>
					<Add option="-DOPENFAST_DOUBLE_PRECISION"/>
					<Add directory="D:/Study/Graduation_Project/openfast/cmake-build-debug/ftnmods"/>
					<Add directory="D:/Study/Graduation_Project/openfast/unit_tests"/>
					<Add directory="D:/Study/Graduation_Project/openfast/cmake-build-debug/unit_tests/pfunit/mod"/>
					<Add directory="D:/Study/Graduation_Project/openfast/cmake-build-debug/unit_tests/tests"/>
					<Add directory="D:/Study/Graduation_Project/openfast/cmake-build-debug/unit_tests/tests/aerodyn"/>
					<Add directory="C:/Software/msys64/mingw64/bin/../lib/gcc/x86_64-w64-mingw32/13.2.0/../../../../include/c++/13.2.0"/>
					<Add directory="C:/Software/msys64/mingw64/bin/../lib/gcc/x86_64-w64-mingw32/13.2.0/../../../../include/c++/13.2.0/x86_64-w64-mingw32"/>
					<Add directory="C:/Software/msys64/mingw64/bin/../lib/gcc/x86_64-w64-mingw32/13.2.0/../../../../include/c++/13.2.0/backward"/>
					<Add directory="C:/Software/msys64/mingw64/bin/../lib/gcc/x86_64-w64-mingw32/13.2.0/include"/>
					<Add directory="C:/Software/msys64/mingw64/bin/../lib/gcc/x86_64-w64-mingw32/13.2.0/../../../../include"/>
					<Add directory="C:/Software/msys64/mingw64/bin/../lib/gcc/x86_64-w64-mingw32/13.2.0/include-fixed"/>
				</Compiler>
				<MakeCommands>
					<Build command="C:/Software/msys64/mingw64/bin/mingw32-make.exe -f &quot;D:/Study/Graduation_Project/openfast/cmake-build-debug/unit_tests/aerodyn/Makefile&quot;  VERBOSE=1 fvw_utest"/>
					<CompileFile command="C:/Software/msys64/mingw64/bin/mingw32-make.exe -f &quot;D:/Study/Graduation_Project/openfast/cmake-build-debug/unit_tests/aerodyn/Makefile&quot;  VERBOSE=1 &quot;$file&quot;"/>
					<Clean command="C:/Software/msys64/mingw64/bin/mingw32-make.exe -f &quot;D:/Study/Graduation_Project/openfast/cmake-build-debug/unit_tests/aerodyn/Makefile&quot;  VERBOSE=1 clean"/>
					<DistClean command="C:/Software/msys64/mingw64/bin/mingw32-make.exe -f &quot;D:/Study/Graduation_Project/openfast/cmake-build-debug/unit_tests/aerodyn/Makefile&quot;  VERBOSE=1 clean"/>
				</MakeCommands>
			</Target>
			<Target title="fvw_utest/fast">
				<Option output="D:/Study/Graduation_Project/openfast/cmake-build-debug/unit_tests/aerodyn/fvw_utest.exe" prefix_auto="0" extension_auto="0"/>
				<Option working_dir="D:/Study/Graduation_Project/openfast/cmake-build-debug/unit_tests/aerodyn"/>
				<Option object_output="./"/>
				<Option type="1"/>
				<Option compiler="gcc"/>
				<Compiler>
					<Add option="-DHAS_FORTRAN2008_FEATURES"/>
					<Add option="-DOPENFAST_DOUBLE_PRECISION"/>
					<Add directory="D:/Study/Graduation_Project/openfast/cmake-build-debug/ftnmods"/>
					<Add directory="D:/Study/Graduation_Project/openfast/unit_tests"/>
					<Add directory="D:/Study/Graduation_Project/openfast/cmake-build-debug/unit_tests/pfunit/mod"/>
					<Add directory="D:/Study/Graduation_Project/openfast/cmake-build-debug/unit_tests/tests"/>
					<Add directory="D:/Study/Graduation_Project/openfast/cmake-build-debug/unit_tests/tests/aerodyn"/>
					<Add directory="C:/Software/msys64/mingw64/bin/../lib/gcc/x86_64-w64-mingw32/13.2.0/../../../../include/c++/13.2.0"/>
					<Add directory="C:/Software/msys64/mingw64/bin/../lib/gcc/x86_64-w64-mingw32/13.2.0/../../../../include/c++/13.2.0/x86_64-w64-mingw32"/>
					<Add directory="C:/Software/msys64/mingw64/bin/../lib/gcc/x86_64-w64-mingw32/13.2.0/../../../../include/c++/13.2.0/backward"/>
					<Add directory="C:/Software/msys64/mingw64/bin/../lib/gcc/x86_64-w64-mingw32/13.2.0/include"/>
					<Add directory="C:/Software/msys64/mingw64/bin/../lib/gcc/x86_64-w64-mingw32/13.2.0/../../../../include"/>
					<Add directory="C:/Software/msys64/mingw64/bin/../lib/gcc/x86_64-w64-mingw32/13.2.0/include-fixed"/>
				</Compiler>
				<MakeCommands>
					<Build command="C:/Software/msys64/mingw64/bin/mingw32-make.exe -f &quot;D:/Study/Graduation_Project/openfast/cmake-build-debug/unit_tests/aerodyn/Makefile&quot;  VERBOSE=1 fvw_utest/fast"/>
					<CompileFile command="C:/Software/msys64/mingw64/bin/mingw32-make.exe -f &quot;D:/Study/Graduation_Project/openfast/cmake-build-debug/unit_tests/aerodyn/Makefile&quot;  VERBOSE=1 &quot;$file&quot;"/>
					<Clean command="C:/Software/msys64/mingw64/bin/mingw32-make.exe -f &quot;D:/Study/Graduation_Project/openfast/cmake-build-debug/unit_tests/aerodyn/Makefile&quot;  VERBOSE=1 clean"/>
					<DistClean command="C:/Software/msys64/mingw64/bin/mingw32-make.exe -f &quot;D:/Study/Graduation_Project/openfast/cmake-build-debug/unit_tests/aerodyn/Makefile&quot;  VERBOSE=1 clean"/>
				</MakeCommands>
			</Target>
			<Target title="inflowwind_utest">
				<Option output="D:/Study/Graduation_Project/openfast/cmake-build-debug/unit_tests/inflowwind/inflowwind_utest.exe" prefix_auto="0" extension_auto="0"/>
				<Option working_dir="D:/Study/Graduation_Project/openfast/cmake-build-debug/unit_tests/inflowwind"/>
				<Option object_output="./"/>
				<Option type="1"/>
				<Option compiler="gcc"/>
				<Compiler>
					<Add option="-DHAS_FORTRAN2008_FEATURES"/>
					<Add option="-DOPENFAST_DOUBLE_PRECISION"/>
					<Add directory="D:/Study/Graduation_Project/openfast/cmake-build-debug/ftnmods"/>
					<Add directory="D:/Study/Graduation_Project/openfast/unit_tests"/>
					<Add directory="D:/Study/Graduation_Project/openfast/cmake-build-debug/unit_tests/pfunit/mod"/>
					<Add directory="D:/Study/Graduation_Project/openfast/cmake-build-debug/unit_tests/tests"/>
					<Add directory="D:/Study/Graduation_Project/openfast/cmake-build-debug/unit_tests/tests/inflowwind"/>
					<Add directory="C:/Software/msys64/mingw64/bin/../lib/gcc/x86_64-w64-mingw32/13.2.0/../../../../include/c++/13.2.0"/>
					<Add directory="C:/Software/msys64/mingw64/bin/../lib/gcc/x86_64-w64-mingw32/13.2.0/../../../../include/c++/13.2.0/x86_64-w64-mingw32"/>
					<Add directory="C:/Software/msys64/mingw64/bin/../lib/gcc/x86_64-w64-mingw32/13.2.0/../../../../include/c++/13.2.0/backward"/>
					<Add directory="C:/Software/msys64/mingw64/bin/../lib/gcc/x86_64-w64-mingw32/13.2.0/include"/>
					<Add directory="C:/Software/msys64/mingw64/bin/../lib/gcc/x86_64-w64-mingw32/13.2.0/../../../../include"/>
					<Add directory="C:/Software/msys64/mingw64/bin/../lib/gcc/x86_64-w64-mingw32/13.2.0/include-fixed"/>
				</Compiler>
				<MakeCommands>
					<Build command="C:/Software/msys64/mingw64/bin/mingw32-make.exe -f &quot;D:/Study/Graduation_Project/openfast/cmake-build-debug/unit_tests/inflowwind/Makefile&quot;  VERBOSE=1 inflowwind_utest"/>
					<CompileFile command="C:/Software/msys64/mingw64/bin/mingw32-make.exe -f &quot;D:/Study/Graduation_Project/openfast/cmake-build-debug/unit_tests/inflowwind/Makefile&quot;  VERBOSE=1 &quot;$file&quot;"/>
					<Clean command="C:/Software/msys64/mingw64/bin/mingw32-make.exe -f &quot;D:/Study/Graduation_Project/openfast/cmake-build-debug/unit_tests/inflowwind/Makefile&quot;  VERBOSE=1 clean"/>
					<DistClean command="C:/Software/msys64/mingw64/bin/mingw32-make.exe -f &quot;D:/Study/Graduation_Project/openfast/cmake-build-debug/unit_tests/inflowwind/Makefile&quot;  VERBOSE=1 clean"/>
				</MakeCommands>
			</Target>
			<Target title="inflowwind_utest/fast">
				<Option output="D:/Study/Graduation_Project/openfast/cmake-build-debug/unit_tests/inflowwind/inflowwind_utest.exe" prefix_auto="0" extension_auto="0"/>
				<Option working_dir="D:/Study/Graduation_Project/openfast/cmake-build-debug/unit_tests/inflowwind"/>
				<Option object_output="./"/>
				<Option type="1"/>
				<Option compiler="gcc"/>
				<Compiler>
					<Add option="-DHAS_FORTRAN2008_FEATURES"/>
					<Add option="-DOPENFAST_DOUBLE_PRECISION"/>
					<Add directory="D:/Study/Graduation_Project/openfast/cmake-build-debug/ftnmods"/>
					<Add directory="D:/Study/Graduation_Project/openfast/unit_tests"/>
					<Add directory="D:/Study/Graduation_Project/openfast/cmake-build-debug/unit_tests/pfunit/mod"/>
					<Add directory="D:/Study/Graduation_Project/openfast/cmake-build-debug/unit_tests/tests"/>
					<Add directory="D:/Study/Graduation_Project/openfast/cmake-build-debug/unit_tests/tests/inflowwind"/>
					<Add directory="C:/Software/msys64/mingw64/bin/../lib/gcc/x86_64-w64-mingw32/13.2.0/../../../../include/c++/13.2.0"/>
					<Add directory="C:/Software/msys64/mingw64/bin/../lib/gcc/x86_64-w64-mingw32/13.2.0/../../../../include/c++/13.2.0/x86_64-w64-mingw32"/>
					<Add directory="C:/Software/msys64/mingw64/bin/../lib/gcc/x86_64-w64-mingw32/13.2.0/../../../../include/c++/13.2.0/backward"/>
					<Add directory="C:/Software/msys64/mingw64/bin/../lib/gcc/x86_64-w64-mingw32/13.2.0/include"/>
					<Add directory="C:/Software/msys64/mingw64/bin/../lib/gcc/x86_64-w64-mingw32/13.2.0/../../../../include"/>
					<Add directory="C:/Software/msys64/mingw64/bin/../lib/gcc/x86_64-w64-mingw32/13.2.0/include-fixed"/>
				</Compiler>
				<MakeCommands>
					<Build command="C:/Software/msys64/mingw64/bin/mingw32-make.exe -f &quot;D:/Study/Graduation_Project/openfast/cmake-build-debug/unit_tests/inflowwind/Makefile&quot;  VERBOSE=1 inflowwind_utest/fast"/>
					<CompileFile command="C:/Software/msys64/mingw64/bin/mingw32-make.exe -f &quot;D:/Study/Graduation_Project/openfast/cmake-build-debug/unit_tests/inflowwind/Makefile&quot;  VERBOSE=1 &quot;$file&quot;"/>
					<Clean command="C:/Software/msys64/mingw64/bin/mingw32-make.exe -f &quot;D:/Study/Graduation_Project/openfast/cmake-build-debug/unit_tests/inflowwind/Makefile&quot;  VERBOSE=1 clean"/>
					<DistClean command="C:/Software/msys64/mingw64/bin/mingw32-make.exe -f &quot;D:/Study/Graduation_Project/openfast/cmake-build-debug/unit_tests/inflowwind/Makefile&quot;  VERBOSE=1 clean"/>
				</MakeCommands>
			</Target>
			<Target title="versioninfo_utest">
				<Option output="D:/Study/Graduation_Project/openfast/cmake-build-debug/unit_tests/version/versioninfo_utest.exe" prefix_auto="0" extension_auto="0"/>
				<Option working_dir="D:/Study/Graduation_Project/openfast/cmake-build-debug/unit_tests/version"/>
				<Option object_output="./"/>
				<Option type="1"/>
				<Option compiler="gcc"/>
				<Compiler>
					<Add option="-DHAS_FORTRAN2008_FEATURES"/>
					<Add option="-DOPENFAST_DOUBLE_PRECISION"/>
					<Add directory="D:/Study/Graduation_Project/openfast/cmake-build-debug/ftnmods"/>
					<Add directory="D:/Study/Graduation_Project/openfast/unit_tests"/>
					<Add directory="D:/Study/Graduation_Project/openfast/cmake-build-debug/unit_tests/pfunit/mod"/>
					<Add directory="D:/Study/Graduation_Project/openfast/cmake-build-debug/unit_tests/tests"/>
					<Add directory="D:/Study/Graduation_Project/openfast/cmake-build-debug/unit_tests/tests/version"/>
					<Add directory="C:/Software/msys64/mingw64/bin/../lib/gcc/x86_64-w64-mingw32/13.2.0/../../../../include/c++/13.2.0"/>
					<Add directory="C:/Software/msys64/mingw64/bin/../lib/gcc/x86_64-w64-mingw32/13.2.0/../../../../include/c++/13.2.0/x86_64-w64-mingw32"/>
					<Add directory="C:/Software/msys64/mingw64/bin/../lib/gcc/x86_64-w64-mingw32/13.2.0/../../../../include/c++/13.2.0/backward"/>
					<Add directory="C:/Software/msys64/mingw64/bin/../lib/gcc/x86_64-w64-mingw32/13.2.0/include"/>
					<Add directory="C:/Software/msys64/mingw64/bin/../lib/gcc/x86_64-w64-mingw32/13.2.0/../../../../include"/>
					<Add directory="C:/Software/msys64/mingw64/bin/../lib/gcc/x86_64-w64-mingw32/13.2.0/include-fixed"/>
				</Compiler>
				<MakeCommands>
					<Build command="C:/Software/msys64/mingw64/bin/mingw32-make.exe -f &quot;D:/Study/Graduation_Project/openfast/cmake-build-debug/unit_tests/version/Makefile&quot;  VERBOSE=1 versioninfo_utest"/>
					<CompileFile command="C:/Software/msys64/mingw64/bin/mingw32-make.exe -f &quot;D:/Study/Graduation_Project/openfast/cmake-build-debug/unit_tests/version/Makefile&quot;  VERBOSE=1 &quot;$file&quot;"/>
					<Clean command="C:/Software/msys64/mingw64/bin/mingw32-make.exe -f &quot;D:/Study/Graduation_Project/openfast/cmake-build-debug/unit_tests/version/Makefile&quot;  VERBOSE=1 clean"/>
					<DistClean command="C:/Software/msys64/mingw64/bin/mingw32-make.exe -f &quot;D:/Study/Graduation_Project/openfast/cmake-build-debug/unit_tests/version/Makefile&quot;  VERBOSE=1 clean"/>
				</MakeCommands>
			</Target>
			<Target title="versioninfo_utest/fast">
				<Option output="D:/Study/Graduation_Project/openfast/cmake-build-debug/unit_tests/version/versioninfo_utest.exe" prefix_auto="0" extension_auto="0"/>
				<Option working_dir="D:/Study/Graduation_Project/openfast/cmake-build-debug/unit_tests/version"/>
				<Option object_output="./"/>
				<Option type="1"/>
				<Option compiler="gcc"/>
				<Compiler>
					<Add option="-DHAS_FORTRAN2008_FEATURES"/>
					<Add option="-DOPENFAST_DOUBLE_PRECISION"/>
					<Add directory="D:/Study/Graduation_Project/openfast/cmake-build-debug/ftnmods"/>
					<Add directory="D:/Study/Graduation_Project/openfast/unit_tests"/>
					<Add directory="D:/Study/Graduation_Project/openfast/cmake-build-debug/unit_tests/pfunit/mod"/>
					<Add directory="D:/Study/Graduation_Project/openfast/cmake-build-debug/unit_tests/tests"/>
					<Add directory="D:/Study/Graduation_Project/openfast/cmake-build-debug/unit_tests/tests/version"/>
					<Add directory="C:/Software/msys64/mingw64/bin/../lib/gcc/x86_64-w64-mingw32/13.2.0/../../../../include/c++/13.2.0"/>
					<Add directory="C:/Software/msys64/mingw64/bin/../lib/gcc/x86_64-w64-mingw32/13.2.0/../../../../include/c++/13.2.0/x86_64-w64-mingw32"/>
					<Add directory="C:/Software/msys64/mingw64/bin/../lib/gcc/x86_64-w64-mingw32/13.2.0/../../../../include/c++/13.2.0/backward"/>
					<Add directory="C:/Software/msys64/mingw64/bin/../lib/gcc/x86_64-w64-mingw32/13.2.0/include"/>
					<Add directory="C:/Software/msys64/mingw64/bin/../lib/gcc/x86_64-w64-mingw32/13.2.0/../../../../include"/>
					<Add directory="C:/Software/msys64/mingw64/bin/../lib/gcc/x86_64-w64-mingw32/13.2.0/include-fixed"/>
				</Compiler>
				<MakeCommands>
					<Build command="C:/Software/msys64/mingw64/bin/mingw32-make.exe -f &quot;D:/Study/Graduation_Project/openfast/cmake-build-debug/unit_tests/version/Makefile&quot;  VERBOSE=1 versioninfo_utest/fast"/>
					<CompileFile command="C:/Software/msys64/mingw64/bin/mingw32-make.exe -f &quot;D:/Study/Graduation_Project/openfast/cmake-build-debug/unit_tests/version/Makefile&quot;  VERBOSE=1 &quot;$file&quot;"/>
					<Clean command="C:/Software/msys64/mingw64/bin/mingw32-make.exe -f &quot;D:/Study/Graduation_Project/openfast/cmake-build-debug/unit_tests/version/Makefile&quot;  VERBOSE=1 clean"/>