<?xml version="1.0" encoding="UTF-8"?>
<CodeBlocks_project_file>
	<FileVersion major="1" minor="6"/>
	<Project>
		<Option title="OpenFAST_RegressionTest_Data"/>
		<Option makefile_is_custom="1"/>
		<Option compiler="gcc"/>
		<Option virtualFolders="CMake Files\;CMake Files\reg_tests\;CMake Files\reg_tests\r-test\;CMake Files\reg_tests\r-test\glue-codes\;CMake Files\reg_tests\r-test\glue-codes\openfast\;CMake Files\reg_tests\r-test\glue-codes\openfast\5MW_Baseline\;CMake Files\reg_tests\r-test\glue-codes\openfast\5MW_Baseline\ServoData\;CMake Files\reg_tests\r-test\glue-codes\openfast\5MW_Baseline\ServoData\DISCON\;CMake Files\reg_tests\r-test\glue-codes\openfast\5MW_Baseline\ServoData\DISCON_ITI\;CMake Files\reg_tests\r-test\glue-codes\openfast\5MW_Baseline\ServoData\DISCON_OC3\;CMake Files\cmake\;CMake Files\modules\;CMake Files\modules\nwtc-library\;CMake Files\modules\version\;CMake Files\modules\inflowwind\;CMake Files\modules\aerodyn\;CMake Files\modules\aerodyn14\;CMake Files\modules\servodyn\;CMake Files\modules\elastodyn\;CMake Files\modules\beamdyn\;CMake Files\modules\subdyn\;CMake Files\modules\hydrodyn\;CMake Files\modules\orcaflex-interface\;CMake Files\modules\extptfm\;CMake Files\modules\feamooring\;CMake Files\modules\moordyn\;CMake Files\modules\icedyn\;CMake Files\modules\icefloe\;CMake Files\modules\wakedynamics\;CMake Files\modules\awae\;CMake Files\modules\map\;CMake Files\modules\turbsim\;CMake Files\modules\supercontroller\;CMake Files\modules\openfoam\;CMake Files\modules\openfast-library\;CMake Files\.git\;CMake Files\.git\refs\;CMake Files\.git\refs\heads\;CMake Files\glue-codes\;CMake Files\glue-codes\openfast\;CMake Files\unit_tests\;CMake Files\unit_tests\beamdyn\;CMake Files\unit_tests\nwtc-library\;CMake Files\unit_tests\aerodyn\;CMake Files\unit_tests\inflowwind\;CMake Files\unit_tests\version\;CMake Files\cmake-build-debug\;CMake Files\cmake-build-debug\unit_tests\;CMake Files\cmake-build-debug\unit_tests\pfunit-tmp\;"/>
		<Build>
			<Target title="all">
				<Option working_dir="D:/Study/Graduation_Project/openfast/cmake-build-debug/reg_tests/r-test"/>
				<Option type="4"/>
				<MakeCommands>
					<Build command="C:/Software/msys64/mingw64/bin/mingw32-make.exe -f &quot;D:/Study/Graduation_Project/openfast/cmake-build-debug/reg_tests/r-test/Makefile&quot;  VERBOSE=1 all"/>
					<CompileFile command="C:/Software/msys64/mingw64/bin/mingw32-make.exe -f &quot;D:/Study/Graduation_Project/openfast/cmake-build-debug/reg_tests/r-test/Makefile&quot;  VERBOSE=1 &quot;$file&quot;"/>
					<Clean command="C:/Software/msys64/mingw64/bin/mingw32-make.exe -f &quot;D:/Study/Graduation_Project/openfast/cmake-build-debug/reg_tests/r-test/Makefile&quot;  VERBOSE=1 clean"/>
					<DistClean command="C:/Software/msys64/mingw64/bin/mingw32-make.exe -f &quot;D:/Study/Graduation_Project/openfast/cmake-build-debug/reg_tests/r-test/Makefile&quot;  VERBOSE=1 clean"/>
				</MakeCommands>
			</Target>
			<Target title="DISCON">
				<Option output="D:/Study/Graduation_Project/openfast/reg_tests/r-test/glue-codes/openfast/5MW_Baseline/ServoData/DISCON/build/DISCON.dll" prefix_auto="0" extension_auto="0"/>
				<Option working_dir="D:/Study/Graduation_Project/openfast/reg_tests/r-test/glue-codes/openfast/5MW_Baseline/ServoData/DISCON/build"/>
				<Option object_output="./"/>
				<Option type="3"/>
				<Option compiler="gcc"/>
				<Compiler>
					<Add option="-DHAS_FORTRAN2008_FEATURES"/>
					<Add option="-DOPENFAST_DOUBLE_PRECISION"/>
					<Add directory="D:/Study/Graduation_Project/openfast/cmake-build-debug/ftnmods"/>
					<Add directory="C:/Software/msys64/mingw64/bin/../lib/gcc/x86_64-w64-mingw32/13.2.0/../../../../include/c++/13.2.0"/>
					<Add directory="C:/Software/msys64/mingw64/bin/../lib/gcc/x86_64-w64-mingw32/13.2.0/../../../../include/c++/13.2.0/x86_64-w64-mingw32"/>
					<Add directory="C:/Software/msys64/mingw64/bin/../lib/gcc/x86_64-w64-mingw32/13.2.0/../../../../include/c++/13.2.0/backward"/>
					<Add directory="C:/Software/msys64/mingw64/bin/../lib/gcc/x86_64-w64-mingw32/13.2.0/include"/>
					<Add directory="C:/Software/msys64/mingw64/bin/../lib/gcc/x86_64-w64-mingw32/13.2.0/../../../../include"/>
					<Add directory="C:/Software/msys64/mingw64/bin/../lib/gcc/x86_64-w64-mingw32/13.2.0/include-fixed"/>
				</Compiler>
				<MakeCommands>
					<Build command="C:/Software/msys64/mingw64/bin/mingw32-make.exe -f &quot;D:/Study/Graduation_Project/openfast/reg_tests/r-test/glue-codes/openfast/5MW_Baseline/ServoData/DISCON/build/Makefile&quot;  VERBOSE=1 DISCON"/>
					<CompileFile command="C:/Software/msys64/mingw64/bin/mingw32-make.exe -f &quot;D:/Study/Graduation_Project/openfast/reg_tests/r-test/glue-codes/openfast/5MW_Baseline/ServoData/DISCON/build/Makefile&quot;  VERBOSE=1 &quot;$file&quot;"/>
					<Clean command="C:/Software/msys64/mingw64/bin/mingw32-make.exe -f &quot;D:/Study/Graduation_Project/openfast/reg_tests/r-test/glue-codes/openfast/5MW_Baseline/ServoData/DISCON/build/Makefile&quot;  VERBOSE=1 clean"/>
					<DistClean command="C:/Software/msys64/mingw64/bin/mingw32-make.exe -f &quot;D:/Study/Graduation_Project/openfast/reg_tests/r-test/glue-codes/openfast/5MW_Baseline/ServoData/DISCON/build/Makefile&quot;  VERBOSE=1 clean"/>
				</MakeCommands>
			</Target>
			<Target title="DISCON/fast">
				<Option output="D:/Study/Graduation_Project/openfast/reg_tests/r-test/glue-codes/openfast/5MW_Baseline/ServoData/DISCON/build/DISCON.dll" prefix_auto="0" extension_auto="0"/>
				<Option working_dir="D:/Study/Graduation_Project/openfast/reg_tests/r-test/glue-codes/openfast/5MW_Baseline/ServoData/DISCON/build"/>
				<Option object_output="./"/>
				<Option type="3"/>
				<Option compiler="gcc"/>
				<Compiler>
					<Add option="-DHAS_FORTRAN2008_FEATURES"/>
					<Add option="-DOPENFAST_DOUBLE_PRECISION"/>
					<Add directory="D:/Study/Graduation_Project/openfast/cmake-build-debug/ftnmods"/>
					<Add directory="C:/Software/msys64/mingw64/bin/../lib/gcc/x86_64-w64-mingw32/13.2.0/../../../../include/c++/13.2.0"/>
					<Add directory="C:/Software/msys64/mingw64/bin/../lib/gcc/x86_64-w64-mingw32/13.2.0/../../../../include/c++/13.2.0/x86_64-w64-mingw32"/>
					<Add directory="C:/Software/msys64/mingw64/bin/../lib/gcc/x86_64-w64-mingw32/13.2.0/../../../../include/c++/13.2.0/backward"/>
					<Add directory="C:/Software/msys64/mingw64/bin/../lib/gcc/x86_64-w64-mingw32/13.2.0/include"/>
					<Add directory="C:/Software/msys64/mingw64/bin/../lib/gcc/x86_64-w64-mingw32/13.2.0/../../../../include"/>
					<Add directory="C:/Software/msys64/mingw64/bin/../lib/gcc/x86_64-w64-mingw32/13.2.0/include-fixed"/>
				</Compiler>
				<MakeCommands>
					<Build command="C:/Software/msys64/mingw64/bin/mingw32-make.exe -f &quot;D:/Study/Graduation_Project/openfast/reg_tests/r-test/glue-codes/openfast/5MW_Baseline/ServoData/DISCON/build/Makefile&quot;  VERBOSE=1 DISCON/fast"/>
					<CompileFile command="C:/Software/msys64/mingw64/bin/mingw32-make.exe -f &quot;D:/Study/Graduation_Project/openfast/reg_tests/r-test/glue-codes/openfast/5MW_Baseline/ServoData/DISCON/build/Makefile&quot;  VERBOSE=1 &quot;$file&quot;"/>
					<Clean command="C:/Software/msys64/mingw64/bin/mingw32-make.exe -f &quot;D:/Study/Graduation_Project/openfast/reg_tests/r-test/glue-codes/openfast/5MW_Baseline/ServoData/DISCON/build/Makefile&quot;  VERBOSE=1 clean"/>
					<DistClean command="C:/Software/msys64/mingw64/bin/mingw32-make.exe -f &quot;D:/Study/Graduation_Project/openfast/reg_tests/r-test/glue-codes/openfast/5MW_Baseline/ServoData/DISCON/build/Makefile&quot;  VERBOSE=1 clean"/>
				</MakeCommands>
			</Target>
			<Target title="DISCON_ITIBarge">
				<Option output="D:/Study/Graduation_Project/openfast/reg_tests/r-test/glue-codes/openfast/5MW_Baseline/ServoData/DISCON_ITI/build/DISCON_ITIBarge.dll" prefix_auto="0" extension_auto="0"/>
				<Option working_dir="D:/Study/Graduation_Project/openfast/reg_tests/r-test/glue-codes/openfast/5MW_Baseline/ServoData/DISCON_ITI/build"/>
				<Option object_output="./"/>
				<Option type="3"/>
				<Option compiler="gcc"/>
				<Compiler>
					<Add option="-DHAS_FORTRAN2008_FEATURES"/>
					<Add option="-DOPENFAST_DOUBLE_PRECISION"/>
					<Add directory="D:/Study/Graduation_Project/openfast/cmake-build-debug/ftnmods"/>
					<Add directory="C:/Software/msys64/mingw64/bin/../lib/gcc/x86_64-w64-mingw32/13.2.0/../../../../include/c++/13.2.0"/>
					<Add directory="C:/Software/msys64/mingw64/bin/../lib/gcc/x86_64-w64-mingw32/13.2.0/../../../../include/c++/13.2.0/x86_64-w64-mingw32"/>
					<Add directory="C:/Software/msys64/mingw64/bin/../lib/gcc/x86_64-w64-mingw32/13.2.0/../../../../include/c++/13.2.0/backward"/>
					<Add directory="C:/Software/msys64/mingw64/bin/../lib/gcc/x86_64-w64-mingw32/13.2.0/include"/>
					<Add directory="C:/Software/msys64/mingw64/bin/../lib/gcc/x86_64-w64-mingw32/13.2.0/../../../../include"/>
					<Add directory="C:/Software/msys64/mingw64/bin/../lib/gcc/x86_64-w64-mingw32/13.2.0/include-fixed"/>
				</Compiler>
				<MakeCommands>
					<Build command="C:/Software/msys64/mingw64/bin/mingw32-make.exe -f &quot;D:/Study/Graduation_Project/openfast/reg_tests/r-test/glue-codes/openfast/5MW_Baseline/ServoData/DISCON_ITI/build/Makefile&quot;  VERBOSE=1 DISCON_ITIBarge"/>
					<CompileFile command="C:/Software/msys64/mingw64/bin/mingw32-make.exe -f &quot;D:/Study/Graduation_Project/openfast/reg_tests/r-test/glue-codes/openfast/5MW_Baseline/ServoData/DISCON_ITI/build/Makefile&quot;  VERBOSE=1 &quot;$file&quot;"/>
					<Clean command="C:/Software/msys64/mingw64/bin/mingw32-make.exe -f &quot;D:/Study/Graduation_Project/openfast/reg_tests/r-test/glue-codes/openfast/5MW_Baseline/ServoData/DISCON_ITI/build/Makefile&quot;  VERBOSE=1 clean"/>
					<DistClean command="C:/Software/msys64/mingw64/bin/mingw32-make.exe -f &quot;D:/Study/Graduation_Project/openfast/reg_tests/r-test/glue-codes/openfast/5MW_Baseline/ServoData/DISCON_ITI/build/Makefile&quot;  VERBOSE=1 clean"/>
				</MakeCommands>
			</Target>
			<Target title="DISCON_ITIBarge/fast">
				<Option output="D:/Study/Graduation_Project/openfast/reg_tests/r-test/glue-codes/openfast/5MW_Baseline/ServoData/DISCON_ITI/build/DISCON_ITIBarge.dll" prefix_auto="0" extension_auto="0"/>
				<Option working_dir="D:/Study/Graduation_Project/openfast/reg_tests/r-test/glue-codes/openfast/5MW_Baseline/ServoData/DISCON_ITI/build"/>
				<Option object_output="./"/>
				<Option type="3"/>
				<Option compiler="gcc"/>
				<Compiler>
					<Add option="-DHAS_FORTRAN2008_FEATURES"/>
					<Add option="-DOPENFAST_DOUBLE_PRECISION"/>
					<Add directory="D:/Study/Graduation_Project/openfast/cmake-build-debug/ftnmods"/>
					<Add directory="C:/Software/msys64/mingw64/bin/../lib/gcc/x86_64-w64-mingw32/13.2.0/../../../../include/c++/13.2.0"/>
					<Add directory="C:/Software/msys64/mingw64/bin/../lib/gcc/x86_64-w64-mingw32/13.2.0/../../../../include/c++/13.2.0/x86_64-w64-mingw32"/>
					<Add directory="C:/Software/msys64/mingw64/bin/../lib/gcc/x86_64-w64-mingw32/13.2.0/../../../../include/c++/13.2.0/backward"/>
					<Add directory="C:/Software/msys64/mingw64/bin/../lib/gcc/x86_64-w64-mingw32/13.2.0/include"/>
					<Add directory="C:/Software/msys64/mingw64/bin/../lib/gcc/x86_64-w64-mingw32/13.2.0/../../../../include"/>
					<Add directory="C:/Software/msys64/mingw64/bin/../lib/gcc/x86_64-w64-mingw32/13.2.0/include-fixed"/>
				</Compiler>
				<MakeCommands>
					<Build command="C:/Software/msys64/mingw64/bin/mingw32-make.exe -f &quot;D:/Study/Graduation_Project/openfast/reg_tests/r-test/glue-codes/openfast/5MW_Baseline/ServoData/DISCON_ITI/build/Makefile&quot;  VERBOSE=1 DISCON_ITIBarge/fast"/>
					<CompileFile command="C:/Software/msys64/mingw64/bin/mingw32-make.exe -f &quot;D:/Study/Graduation_Project/openfast/reg_tests/r-test/glue-codes/openfast/5MW_Baseline/ServoData/DISCON_ITI/build/Makefile&quot;  VERBOSE=1 &quot;$file&quot;"/>
					<Clean command="C:/Software/msys64/mingw64/bin/mingw32-make.exe -f &quot;D:/Study/Graduation_Project/openfast/reg_tests/r-test/glue-codes/openfast/5MW_Baseline/ServoData/DISCON_ITI/build/Makefile&quot;  VERBOSE=1 clean"/>
					<DistClean command="C:/Software/msys64/mingw64/bin/mingw32-make.exe -f &quot;D:/Study/Graduation_Project/openfast/reg_tests/r-test/glue-codes/openfast/5MW_Baseline/ServoData/DISCON_ITI/build/Makefile&quot;  VERBOSE=1 clean"/>
				</MakeCommands>
			</Target>
			<Target title="DISCON_OC3Hywind">
				<Option output="D:/Study/Graduation_Project/openfast/reg_tests/r-test/glue-codes/openfast/5MW_Baseline/ServoData/DISCON_OC3/build/DISCON_OC3Hywind.dll" prefix_auto="0" extension_auto="0"/>
				<Option working_dir="D:/Study/Graduation_Project/openfast/reg_tests/r-test/glue-codes/openfast/5MW_Baseline/ServoData/DISCON_OC3/build"/>
				<Option object_output="./"/>
				<Option type="3"/>
				<Option compiler="gcc"/>
				<Compiler>
					<Add option="-DHAS_FORTRAN2008_FEATURES"/>
					<Add option="-DOPENFAST_DOUBLE_PRECISION"/>
					<Add directory="D:/Study/Graduation_Project/openfast/cmake-build-debug/ftnmods"/>
					<Add directory="C:/Software/msys64/mingw64/bin/../lib/gcc/x86_64-w64-mingw32/13.2.0/../../../../include/c++/13.2.0"/>
					<Add directory="C:/Software/msys64/mingw64/bin/../lib/gcc/x86_64-w64-mingw32/13.2.0/../../../../include/c++/13.2.0/x86_64-w64-mingw32"/>
					<Add directory="C:/Software/msys64/mingw64/bin/../lib/gcc/x86_64-w64-mingw32/13.2.0/../../../../include/c++/13.2.0/backward"/>
					<Add directory="C:/Software/msys64/mingw64/bin/../lib/gcc/x86_64-w64-mingw32/13.2.0/include"/>
					<Add directory="C:/Software/msys64/mingw64/bin/../lib/gcc/x86_64-w64-mingw32/13.2.0/../../../../include"/>
					<Add directory="C:/Software/msys64/mingw64/bin/../lib/gcc/x86_64-w64-mingw32/13.2.0/include-fixed"/>
				</Compiler>
				<MakeCommands>
					<Build command="C:/Software/msys64/mingw64/bin/mingw32-make.exe -f &quot;D:/Study/Graduation_Project/openfast/reg_tests/r-test/glue-codes/openfast/5MW_Baseline/ServoData/DISCON_OC3/build/Makefile&quot;  VERBOSE=1 DISCON_OC3Hywind"/>
					<CompileFile command="C:/Software/msys64/mingw64/bin/mingw32-make.exe -f &quot;D:/Study/Graduation_Project/openfast/reg_tests/r-test/glue-codes/openfast/5MW_Baseline/ServoData/DISCON_OC3/build/Makefile&quot;  VERBOSE=1 &quot;$file&quot;"/>
					<Clean command="C:/Software/msys64/mingw64/bin/mingw32-make.exe -f &quot;D:/Study/Graduation_Project/openfast/reg_tests/r-test/glue-codes/openfast/5MW_Baseline/ServoData/DISCON_OC3/build/Makefile&quot;  VERBOSE=1 clean"/>
					<DistClean command="C:/Software/msys64/mingw64/bin/mingw32-make.exe -f &quot;D:/Study/Graduation_Project/openfast/reg_tests/r-test/glue-codes/openfast/5MW_Baseline/ServoData/DISCON_OC3/build/Makefile&quot;  VERBOSE=1 clean"/>
				</MakeCommands>
			</Target>
			<Target title="DISCON_OC3Hywind/fast">
				<Option output="D:/Study/Graduation_Project/openfast/reg_tests/r-test/glue-codes/openfast/5MW_Baseline/ServoData/DISCON_OC3/build/DISCON_OC3Hywind.dll" prefix_auto="0" extension_auto="0"/>
				<Option working_dir="D:/Study/Graduation_Project/openfast/reg_tests/r-test/glue-codes/openfast/5MW_Baseline/ServoData/DISCON_OC3/build"/>
				<Option object_output="./"/>
				<Option type="3"/>
				<Option compiler="gcc"/>
				<Compiler>
					<Add option="-DHAS_FORTRAN2008_FEATURES"/>
					<Add option="-DOPENFAST_DOUBLE_PRECISION"/>
					<Add directory="D:/Study/Graduation_Project/openfast/cmake-build-debug/ftnmods"/>
					<Add directory="C:/Software/msys64/mingw64/bin/../lib/gcc/x86_64-w64-mingw32/13.2.0/../../../../include/c++/13.2.0"/>
					<Add directory="C:/Software/msys64/mingw64/bin/../lib/gcc/x86_64-w64-mingw32/13.2.0/../../../../include/c++/13.2.0/x86_64-w64-mingw32"/>
					<Add directory="C:/Software/msys64/mingw64/bin/../lib/gcc/x86_64-w64-mingw32/13.2.0/../../../../include/c++/13.2.0/backward"/>
					<Add directory="C:/Software/msys64/mingw64/bin/../lib/gcc/x86_64-w64-mingw32/13.2.0/include"/>
					<Add directory="C:/Software/msys64/mingw64/bin/../lib/gcc/x86_64-w64-mingw32/13.2.0/../../../../include"/>
					<Add directory="C:/Software/msys64/mingw64/bin/../lib/gcc/x86_64-w64-mingw32/13.2.0/include-fixed"/>
				</Compiler>
				<MakeCommands>
					<Build command="C:/Software/msys64/mingw64/bin/mingw32-make.exe -f &quot;D:/Study/Graduation_Project/openfast/reg_tests/r-test/glue-codes/openfast/5MW_Baseline/ServoData/DISCON_OC3/build/Makefile&quot;  VERBOSE=1 DISCON_OC3Hywind/fast"/>
					<CompileFile command="C:/Software/msys64/mingw64/bin/mingw32-make.exe -f &quot;D:/Study/Graduation_Project/openfast/reg_tests/r-test/glue-codes/openfast/5MW_Baseline/ServoData/DISCON_OC3/build/Makefile&quot;  VERBOSE=1 &quot;$file&quot;"/>
					<Clean command="C:/Software/msys64/mingw64/bin/mingw32-make.exe -f &quot;D:/Study/Graduation_Project/openfast/reg_tests/r-test/glue-codes/openfast/5MW_Baseline/ServoData/DISCON_OC3/build/Makefile&quot;  VERBOSE=1 clean"/>
					<DistClean command="C:/Software/msys64/mingw64/bin/mingw32-make.exe -f &quot;D:/Study/Graduation_Project/openfast/reg_tests/r-test/glue-codes/openfast/5MW_Baseline/ServoData/DISCON_OC3/build/Makefile&quot;  VERBOSE=1 clean"/>
				</MakeCommands>
			</Target>
		</Build>
		<Unit filename="D:/Study/Graduation_Project/openfast/reg_tests/r-test/glue-codes/openfast/5MW_Baseline/ServoData/DISCON/DISCON.F90">
			<Option target="DISCON"/>
		</Unit>
		<Unit filename="D:/Study/Graduation_Project/openfast/reg_tests/r-test/glue-codes/openfast/5MW_Baseline/ServoData/DISCON_ITI/DISCON_ITIBarge.F90">
			<Option target="DISCON_ITIBarge"/>
		</Unit>
		<Unit filename="D:/Study/Graduation_Project/openfast/reg_tests/r-test/glue-codes/openfast/5MW_Baseline/ServoData/DISCON_OC3/DISCON_OC3Hywind.F90">
			<Option target="DISCON_OC3Hywind"/>
		</Unit>
		<Unit filename="D:/Study/Graduation_Project/openfast/CMakeLists.txt">
			<Option virtualFolder="CMake Files\"/>
		</Unit>
		<Unit filename="D:/Study/Graduation_Project/openfast/reg_tests/CMakeLists.txt">
			<Option virtualFolder="CMake Files\reg_tests\"/>
		</Unit>
		<Unit filename="D:/Study/Graduation_Project/openfast/reg_tests/CTestList.cmake">
			<Option virtualFolder="CMake Files\reg_tests\"/>
		</Unit>
		<Unit filename="D:/Study/Graduation_Project/openfast/reg_tests/r-test/CMakeLists.txt">
			<Option virtualFolder="CMake Files\reg_tests\r-test\"/>
		</Unit>
		<Unit filename="D:/Study/Graduation_Project/openfast/reg_tests/r-test/glue-codes/openfast/5MW_Baseline/ServoData/DISCON/CMakeLists.txt">
			<Option virtualFolder="CMake Files\reg_tests\r-test\glue-codes\openfast\5MW_Baseline\ServoData\DISCON\"/>
		</Unit>
		<Unit filename="D:/Study/Graduation_Project/openfast/reg_tests/r-test/glue-codes/openfast/5MW_Baseline/ServoData/DISCON_ITI/CMakeLists.txt">
			<Option virtualFolder="CMake Files\reg_tests\r-test\glue-codes\openfast\5MW_Baseline\ServoData\DISCON_ITI\"/>
		</Unit>
		<Unit filename="D:/Study/Graduation_Project/openfast/reg_tests/r-test/glue-codes/openfast/5MW_Baseline/ServoData/DISCON_OC3/CMakeLists.txt">
			<Option virtualFolder="CMake Files\reg_tests\r-test\glue-codes\openfast\5MW_Baseline\ServoData\DISCON_OC3\"/>
		</Unit>
		<Unit filename="D:/Study/Graduation_Project/openfast/cmake/GetGitRevisionDescription.cmake">
			<Option virtualFolder="CMake Files\cmake\"/>
		</Unit>
		<Unit filename="D:/Study/Graduation_Project/openfast/cmake/GetGitRevisionDescription.cmake.in">
			<Option virtualFolder="CMake Files\cmake\"/>
		</Unit>
		<Unit filename="D:/Study/Graduation_Project/openfast/cmake/OpenFASTConfig.cmake.in">
			<Option virtualFolder="CMake Files\cmake\"/>
		</Unit>
		<Unit filename="D:/Study/Graduation_Project/openfast/cmake/OpenfastCmakeUtils.cmake">
			<Option virtualFolder="CMake Files\cmake\"/>
		</Unit>
		<Unit filename="D:/Study/Graduation_Project/openfast/cmake/OpenfastFortranOptions.cmake">
			<Option virtualFolder="CMake Files\cmake\"/>
		</Unit>
		<Unit filename="D:/Study/Graduation_Project/openfast/cmake/set_rpath.cmake">
			<Option virtualFolder="CMake Files\cmake\"/>
		</Unit>
		<Unit filename="D:/Study/Graduation_Project/openfast/modules/nwtc-library/CMakeLists.txt">
			<Option virtualFolder="CMake Files\modules\nwtc-library\"/>
		</Unit>
		<Unit filename="D:/Study/Graduation_Project/openfast/modules/version/CMakeLists.txt">
			<Option virtualFolder="CMake Files\modules\version\"/>
		</Unit>
		<Unit filename="D:/Study/Graduation_Project/openfast/modules/inflowwind/CMakeLists.txt">
			<Option virtualFolder="CMake Files\modules\inflowwind\"/>
		</Unit>
		<Unit filename="D:/Study/Graduation_Project/openfast/modules/aerodyn/CMakeLists.txt">
			<Option virtualFolder="CMake Files\modules\aerodyn\"/>
		</Unit>
		<Unit filename="D:/Study/Graduation_Project/openfast/modules/aerodyn14/CMakeLists.txt">
			<Option virtualFolder="CMake Files\modules\aerodyn14\"/>
		</Unit>
		<Unit filename="D:/Study/Graduation_Project/openfast/modules/servodyn/CMakeLists.txt">
			<Option virtualFolder="CMake Files\modules\servodyn\"/>
		</Unit>
		<Unit filename="D:/Study/Graduation_Project/openfast/modules/elastodyn/CMakeLists.txt">
			<Option virtualFolder="CMake Files\modules\elastodyn\"/>
		</Unit>
		<Unit filename="D:/Study/Graduation_Project/openfast/modules/beamdyn/CMakeLists.txt">
			<Option virtualFolder="CMake Files\modules\beamdyn\"/>
		</Unit>
		<Unit filename="D:/Study/Graduation_Project/openfast/modules/subdyn/CMakeLists.txt">
			<Option virtualFolder="CMake Files\modules\subdyn\"/>
		</Unit>
		<Unit filename="D:/Study/Graduation_Project/openfast/modules/hydrodyn/CMakeLists.txt">
			<Option virtualFolder="CMake Files\modules\hydrodyn\"/>
		</Unit>
		<Unit filename="D:/Study/Graduation_Project/openfast/modules/orcaflex-interface/CMakeLists.txt">
			<Option virtualFolder="CMake Files\modules\orcaflex-interface\"/>
		</Unit>
		<Unit filename="D:/Study/Graduation_Project/openfast/modules/extptfm/CMakeLists.txt">
			<Option virtualFolder="CMake Files\modules\extptfm\"/>
		</Unit>
		<Unit filename="D:/Study/Graduation_Project/openfast/modules/feamooring/CMakeLists.txt">
			<Option virtualFolder="CMake Files\modules\feamooring\"/>
		</Unit>
		<Unit filename="D:/Study/Graduation_Project/openfast/modules/moordyn/CMakeLists.txt">
			<Option virtualFolder="CMake Files\modules\moordyn\"/>
		</Unit>
		<Unit filename="D:/Study/Graduation_Project/openfast/modules/icedyn/CMakeLists.txt">
			<Option virtualFolder="CMake Files\modules\icedyn\"/>
		</Unit>
		<Unit filename="D:/Study/Graduation_Project/openfast/modules/icefloe/CMakeLists.txt">
			<Option virtualFolder="CMake Files\modules\icefloe\"/>
		</Unit>
		<Unit filename="D:/Study/Graduation_Project/openfast/modules/wakedynamics/CMakeLists.txt">
			<Option virtualFolder="CMake Files\modules\wakedynamics\"/>
		</Unit>
		<Unit filename="D:/Study/Graduation_Project/openfast/modules/awae/CMakeLists.txt">
			<Option virtualFolder="CMake Files\modules\awae\"/>
		</Unit>
		<Unit filename="D:/Study/Graduation_Project/openfast/modules/map/CMakeLists.txt">
			<Option virtualFolder="CMake Files\modules\map\"/>
		</Unit>
		<Unit filename="D:/Study/Graduation_Project/openfast/modules/turbsim/CMakeLists.txt">
			<Option virtualFolder="CMake Files\modules\turbsim\"/>
		</Unit>
		<Unit filename="D:/Study/Graduation_Project/openfast/modules/supercontroller/CMakeLists.txt">
			<Option virtualFolder="CMake Files\modules\supercontroller\"/>
		</Unit>
		<Unit filename="D:/Study/Graduation_Project/openfast/modules/openfoam/CMakeLists.txt">
			<Option virtualFolder="CMake Files\modules\openfoam\"/>
		</Unit>
		<Unit filename="D:/Study/Graduation_Project/openfast/modules/openfast-library/CMakeLists.txt">
			<Option virtualFolder="CMake Files\modules\openfast-library\"/>
		</Unit>
		<Unit filename="D:/Study/Graduation_Project/openfast/.git/HEAD">
			<Option virtualFolder="CMake Files\.git\"/>
		</Unit>
		<Unit filename="D:/Study/Graduation_Project/openfast/.git/refs/heads/main">
			<Option virtualFolder="CMake Files\.git\refs\heads\"/>
		</Unit>
		<Unit filename="D:/Study/Graduation_Project/openfast/glue-codes/CMakeLists.txt">
			<Option virtualFolder="CMake Files\glue-codes\"/>
		</Unit>
		<Unit filename="D:/Study/Graduation_Project/openfast/glue-codes/openfast/CMakeLists.txt">
			<Option virtualFolder="CMake Files\glue-codes\openfast\"/>
		</Unit>
		<Unit filename="D:/Study/Graduation_Project/openfast/unit_tests/CMakeLists.txt">
			<Option virtualFolder="CMake Files\unit_tests\"/>
		</Unit>
		<Unit filename="D:/Study/Graduation_Project/openfast/unit_tests/beamdyn/CMakeLists.txt">
			<Option virtualFolder="CMake Files\unit_tests\beamdyn\"/>
		</Unit>
		<Unit filename="D:/Study/Graduation_Project/openfast/unit_tests/nwtc-library/CMakeLists.txt">
			<Option virtualFolder="CMake Files\unit_tests\nwtc-library\"/>
		</Unit>
		<Unit filename="D:/Study/Graduation_Project/openfast/unit_tests/aerodyn/CMakeLists.txt">
			<Option virtualFolder="CMake Files\unit_tests\aerodyn\"/>
		</Unit>
		<Unit filename="D:/Study/Graduation_Project/openfast/unit_tests/inflowwind/CMakeLists.txt">
			<Option virtualFolder="CMake Files\unit_tests\inflowwind\"/>
		</Unit>
		<Unit filename="D:/Study/Graduation_Project/openfast/unit_tests/version/CMakeLists.txt">
			<Option virtualFolder="CMake Files\unit_tests\version\"/>
		</Unit>
		<Unit filename="D:/Study/Graduation_Project/openfast/cmake-build-debug/unit_tests/pfunit-tmp/pfunit-mkdirs.cmake">
			<Option virtualFolder="CMake Files\cmake-build-debug\unit_tests\pfunit-tmp\"/>
		</Unit>
	</Project>
</CodeBlocks_project_file>
