# CMAKE generated file: DO NOT EDIT!
# Generated by "MinGW Makefiles" Generator, CMake Version 3.27

# Delete rule output on recipe failure.
.DELETE_ON_ERROR:

#=============================================================================
# Special targets provided by cmake.

# Disable implicit rules so canonical targets will work.
.SUFFIXES:

# Disable VCS-based implicit rules.
% : %,v

# Disable VCS-based implicit rules.
% : RCS/%

# Disable VCS-based implicit rules.
% : RCS/%,v

# Disable VCS-based implicit rules.
% : SCCS/s.%

# Disable VCS-based implicit rules.
% : s.%

.SUFFIXES: .hpux_make_needs_suffix_list

# Command-line flag to silence nested $(MAKE).
$(VERBOSE)MAKESILENT = -s

#Suppress display of executed commands.
$(VERBOSE).SILENT:

# A target that is always out of date.
cmake_force:
.PHONY : cmake_force

#=============================================================================
# Set environment variables for the build.

SHELL = cmd.exe

# The CMake executable.
CMAKE_COMMAND = "C:\Software\JetBrains\CLion 2023.3.3\bin\cmake\win\x64\bin\cmake.exe"

# The command to remove a file.
RM = "C:\Software\JetBrains\CLion 2023.3.3\bin\cmake\win\x64\bin\cmake.exe" -E rm -f

# Escaping for special characters.
EQUALS = =

# The top-level source directory on which CMake was run.
CMAKE_SOURCE_DIR = D:\Study\Graduation_Project\openfast

# The top-level build directory on which CMake was run.
CMAKE_BINARY_DIR = D:\Study\Graduation_Project\openfast\cmake-build-debug

# Include any dependencies generated for this target.
include modules/aerodyn/CMakeFiles/aerodynlib.dir/depend.make
# Include any dependencies generated by the compiler for this target.
include modules/aerodyn/CMakeFiles/aerodynlib.dir/compiler_depend.make

# Include the progress variables for this target.
include modules/aerodyn/CMakeFiles/aerodynlib.dir/progress.make

# Include the compile flags for this target's objects.
include modules/aerodyn/CMakeFiles/aerodynlib.dir/flags.make

modules/aerodyn/CMakeFiles/aerodynlib.dir/src/AeroDyn.f90.obj: modules/aerodyn/CMakeFiles/aerodynlib.dir/flags.make
modules/aerodyn/CMakeFiles/aerodynlib.dir/src/AeroDyn.f90.obj: modules/aerodyn/CMakeFiles/aerodynlib.dir/includes_Fortran.rsp
modules/aerodyn/CMakeFiles/aerodynlib.dir/src/AeroDyn.f90.obj: D:/Study/Graduation_Project/openfast/modules/aerodyn/src/AeroDyn.f90
	@$(CMAKE_COMMAND) -E cmake_echo_color "--switch=$(COLOR)" --green --progress-dir=D:\Study\Graduation_Project\openfast\cmake-build-debug\CMakeFiles --progress-num=$(CMAKE_PROGRESS_1) "Building Fortran object modules/aerodyn/CMakeFiles/aerodynlib.dir/src/AeroDyn.f90.obj"
	cd /d D:\Study\Graduation_Project\openfast\cmake-build-debug\modules\aerodyn && C:\Software\msys64\mingw64\bin\gfortran.exe $(Fortran_DEFINES) $(Fortran_INCLUDES) $(Fortran_FLAGS) -c D:\Study\Graduation_Project\openfast\modules\aerodyn\src\AeroDyn.f90 -o CMakeFiles\aerodynlib.dir\src\AeroDyn.f90.obj

modules/aerodyn/CMakeFiles/aerodynlib.dir/src/AeroDyn.f90.i: cmake_force
	@$(CMAKE_COMMAND) -E cmake_echo_color "--switch=$(COLOR)" --green "Preprocessing Fortran source to CMakeFiles/aerodynlib.dir/src/AeroDyn.f90.i"
	cd /d D:\Study\Graduation_Project\openfast\cmake-build-debug\modules\aerodyn && C:\Software\msys64\mingw64\bin\gfortran.exe $(Fortran_DEFINES) $(Fortran_INCLUDES) $(Fortran_FLAGS) -E D:\Study\Graduation_Project\openfast\modules\aerodyn\src\AeroDyn.f90 > CMakeFiles\aerodynlib.dir\src\AeroDyn.f90.i

modules/aerodyn/CMakeFiles/aerodynlib.dir/src/AeroDyn.f90.s: cmake_force
	@$(CMAKE_COMMAND) -E cmake_echo_color "--switch=$(COLOR)" --green "Compiling Fortran source to assembly CMakeFiles/aerodynlib.dir/src/AeroDyn.f90.s"
	cd /d D:\Study\Graduation_Project\openfast\cmake-build-debug\modules\aerodyn && C:\Software\msys64\mingw64\bin\gfortran.exe $(Fortran_DEFINES) $(Fortran_INCLUDES) $(Fortran_FLAGS) -S D:\Study\Graduation_Project\openfast\modules\aerodyn\src\AeroDyn.f90 -o CMakeFiles\aerodynlib.dir\src\AeroDyn.f90.s

modules/aerodyn/CMakeFiles/aerodynlib.dir/src/AeroDyn_IO_Params.f90.obj: modules/aerodyn/CMakeFiles/aerodynlib.dir/flags.make
modules/aerodyn/CMakeFiles/aerodynlib.dir/src/AeroDyn_IO_Params.f90.obj: modules/aerodyn/CMakeFiles/aerodynlib.dir/includes_Fortran.rsp
modules/aerodyn/CMakeFiles/aerodynlib.dir/src/AeroDyn_IO_Params.f90.obj: D:/Study/Graduation_Project/openfast/modules/aerodyn/src/AeroDyn_IO_Params.f90
	@$(CMAKE_COMMAND) -E cmake_echo_color "--switch=$(COLOR)" --green --progress-dir=D:\Study\Graduation_Project\openfast\cmake-build-debug\CMakeFiles --progress-num=$(CMAKE_PROGRESS_2) "Building Fortran object modules/aerodyn/CMakeFiles/aerodynlib.dir/src/AeroDyn_IO_Params.f90.obj"
	cd /d D:\Study\Graduation_Project\openfast\cmake-build-debug\modules\aerodyn && C:\Software\msys64\mingw64\bin\gfortran.exe $(Fortran_DEFINES) $(Fortran_INCLUDES) $(Fortran_FLAGS) -c D:\Study\Graduation_Project\openfast\modules\aerodyn\src\AeroDyn_IO_Params.f90 -o CMakeFiles\aerodynlib.dir\src\AeroDyn_IO_Params.f90.obj

modules/aerodyn/CMakeFiles/aerodynlib.dir/src/AeroDyn_IO_Params.f90.i: cmake_force
	@$(CMAKE_COMMAND) -E cmake_echo_color "--switch=$(COLOR)" --green "Preprocessing Fortran source to CMakeFiles/aerodynlib.dir/src/AeroDyn_IO_Params.f90.i"
	cd /d D:\Study\Graduation_Project\openfast\cmake-build-debug\modules\aerodyn && C:\Software\msys64\mingw64\bin\gfortran.exe $(Fortran_DEFINES) $(Fortran_INCLUDES) $(Fortran_FLAGS) -E D:\Study\Graduation_Project\openfast\modules\aerodyn\src\AeroDyn_IO_Params.f90 > CMakeFiles\aerodynlib.dir\src\AeroDyn_IO_Params.f90.i

modules/aerodyn/CMakeFiles/aerodynlib.dir/src/AeroDyn_IO_Params.f90.s: cmake_force
	@$(CMAKE_COMMAND) -E cmake_echo_color "--switch=$(COLOR)" --green "Compiling Fortran source to assembly CMakeFiles/aerodynlib.dir/src/AeroDyn_IO_Params.f90.s"
	cd /d D:\Study\Graduation_Project\openfast\cmake-build-debug\modules\aerodyn && C:\Software\msys64\mingw64\bin\gfortran.exe $(Fortran_DEFINES) $(Fortran_INCLUDES) $(Fortran_FLAGS) -S D:\Study\Graduation_Project\openfast\modules\aerodyn\src\AeroDyn_IO_Params.f90 -o CMakeFiles\aerodynlib.dir\src\AeroDyn_IO_Params.f90.s

modules/aerodyn/CMakeFiles/aerodynlib.dir/src/AeroDyn_IO.f90.obj: modules/aerodyn/CMakeFiles/aerodynlib.dir/flags.make
modules/aerodyn/CMakeFiles/aerodynlib.dir/src/AeroDyn_IO.f90.obj: modules/aerodyn/CMakeFiles/aerodynlib.dir/includes_Fortran.rsp
modules/aerodyn/CMakeFiles/aerodynlib.dir/src/AeroDyn_IO.f90.obj: D:/Study/Graduation_Project/openfast/modules/aerodyn/src/AeroDyn_IO.f90
	@$(CMAKE_COMMAND) -E cmake_echo_color "--switch=$(COLOR)" --green --progress-dir=D:\Study\Graduation_Project\openfast\cmake-build-debug\CMakeFiles --progress-num=$(CMAKE_PROGRESS_3) "Building Fortran object modules/aerodyn/CMakeFiles/aerodynlib.dir/src/AeroDyn_IO.f90.obj"
	cd /d D:\Study\Graduation_Project\openfast\cmake-build-debug\modules\aerodyn && C:\Software\msys64\mingw64\bin\gfortran.exe $(Fortran_DEFINES) $(Fortran_INCLUDES) $(Fortran_FLAGS) -c D:\Study\Graduation_Project\openfast\modules\aerodyn\src\AeroDyn_IO.f90 -o CMakeFiles\aerodynlib.dir\src\AeroDyn_IO.f90.obj

modules/aerodyn/CMakeFiles/aerodynlib.dir/src/AeroDyn_IO.f90.i: cmake_force
	@$(CMAKE_COMMAND) -E cmake_echo_color "--switch=$(COLOR)" --green "Preprocessing Fortran source to CMakeFiles/aerodynlib.dir/src/AeroDyn_IO.f90.i"
	cd /d D:\Study\Graduation_Project\openfast\cmake-build-debug\modules\aerodyn && C:\Software\msys64\mingw64\bin\gfortran.exe $(Fortran_DEFINES) $(Fortran_INCLUDES) $(Fortran_FLAGS) -E D:\Study\Graduation_Project\openfast\modules\aerodyn\src\AeroDyn_IO.f90 > CMakeFiles\aerodynlib.dir\src\AeroDyn_IO.f90.i

modules/aerodyn/CMakeFiles/aerodynlib.dir/src/AeroDyn_IO.f90.s: cmake_force
	@$(CMAKE_COMMAND) -E cmake_echo_color "--switch=$(COLOR)" --green "Compiling Fortran source to assembly CMakeFiles/aerodynlib.dir/src/AeroDyn_IO.f90.s"
	cd /d D:\Study\Graduation_Project\openfast\cmake-build-debug\modules\aerodyn && C:\Software\msys64\mingw64\bin\gfortran.exe $(Fortran_DEFINES) $(Fortran_INCLUDES) $(Fortran_FLAGS) -S D:\Study\Graduation_Project\openfast\modules\aerodyn\src\AeroDyn_IO.f90 -o CMakeFiles\aerodynlib.dir\src\AeroDyn_IO.f90.s

modules/aerodyn/CMakeFiles/aerodynlib.dir/src/AeroDyn_AllBldNdOuts_IO.f90.obj: modules/aerodyn/CMakeFiles/aerodynlib.dir/flags.make
modules/aerodyn/CMakeFiles/aerodynlib.dir/src/AeroDyn_AllBldNdOuts_IO.f90.obj: modules/aerodyn/CMakeFiles/aerodynlib.dir/includes_Fortran.rsp
modules/aerodyn/CMakeFiles/aerodynlib.dir/src/AeroDyn_AllBldNdOuts_IO.f90.obj: D:/Study/Graduation_Project/openfast/modules/aerodyn/src/AeroDyn_AllBldNdOuts_IO.f90
	@$(CMAKE_COMMAND) -E cmake_echo_color "--switch=$(COLOR)" --green --progress-dir=D:\Study\Graduation_Project\openfast\cmake-build-debug\CMakeFiles --progress-num=$(CMAKE_PROGRESS_4) "Building Fortran object modules/aerodyn/CMakeFiles/aerodynlib.dir/src/AeroDyn_AllBldNdOuts_IO.f90.obj"
	cd /d D:\Study\Graduation_Project\openfast\cmake-build-debug\modules\aerodyn && C:\Software\msys64\mingw64\bin\gfortran.exe $(Fortran_DEFINES) $(Fortran_INCLUDES) $(Fortran_FLAGS) -c D:\Study\Graduation_Project\openfast\modules\aerodyn\src\AeroDyn_AllBldNdOuts_IO.f90 -o CMakeFiles\aerodynlib.dir\src\AeroDyn_AllBldNdOuts_IO.f90.obj

modules/aerodyn/CMakeFiles/aerodynlib.dir/src/AeroDyn_AllBldNdOuts_IO.f90.i: cmake_force
	@$(CMAKE_COMMAND) -E cmake_echo_color "--switch=$(COLOR)" --green "Preprocessing Fortran source to CMakeFiles/aerodynlib.dir/src/AeroDyn_AllBldNdOuts_IO.f90.i"
	cd /d D:\Study\Graduation_Project\openfast\cmake-build-debug\modules\aerodyn && C:\Software\msys64\mingw64\bin\gfortran.exe $(Fortran_DEFINES) $(Fortran_INCLUDES) $(Fortran_FLAGS) -E D:\Study\Graduation_Project\openfast\modules\aerodyn\src\AeroDyn_AllBldNdOuts_IO.f90 > CMakeFiles\aerodynlib.dir\src\AeroDyn_AllBldNdOuts_IO.f90.i

modules/aerodyn/CMakeFiles/aerodynlib.dir/src/AeroDyn_AllBldNdOuts_IO.f90.s: cmake_force
	@$(CMAKE_COMMAND) -E cmake_echo_color "--switch=$(COLOR)" --green "Compiling Fortran source to assembly CMakeFiles/aerodynlib.dir/src/AeroDyn_AllBldNdOuts_IO.f90.s"
	cd /d D:\Study\Graduation_Project\openfast\cmake-build-debug\modules\aerodyn && C:\Software\msys64\mingw64\bin\gfortran.exe $(Fortran_DEFINES) $(Fortran_INCLUDES) $(Fortran_FLAGS) -S D:\Study\Graduation_Project\openfast\modules\aerodyn\src\AeroDyn_AllBldNdOuts_IO.f90 -o CMakeFiles\aerodynlib.dir\src\AeroDyn_AllBldNdOuts_IO.f90.s

modules/aerodyn/CMakeFiles/aerodynlib.dir/src/BEMT.f90.obj: modules/aerodyn/CMakeFiles/aerodynlib.dir/flags.make
modules/aerodyn/CMakeFiles/aerodynlib.dir/src/BEMT.f90.obj: modules/aerodyn/CMakeFiles/aerodynlib.dir/includes_Fortran.rsp
modules/aerodyn/CMakeFiles/aerodynlib.dir/src/BEMT.f90.obj: D:/Study/Graduation_Project/openfast/modules/aerodyn/src/BEMT.f90
	@$(CMAKE_COMMAND) -E cmake_echo_color "--switch=$(COLOR)" --green --progress-dir=D:\Study\Graduation_Project\openfast\cmake-build-debug\CMakeFiles --progress-num=$(CMAKE_PROGRESS_5) "Building Fortran object modules/aerodyn/CMakeFiles/aerodynlib.dir/src/BEMT.f90.obj"
	cd /d D:\Study\Graduation_Project\openfast\cmake-build-debug\modules\aerodyn && C:\Software\msys64\mingw64\bin\gfortran.exe $(Fortran_DEFINES) $(Fortran_INCLUDES) $(Fortran_FLAGS) -c D:\Study\Graduation_Project\openfast\modules\aerodyn\src\BEMT.f90 -o CMakeFiles\aerodynlib.dir\src\BEMT.f90.obj

modules/aerodyn/CMakeFiles/aerodynlib.dir/src/BEMT.f90.i: cmake_force
	@$(CMAKE_COMMAND) -E cmake_echo_color "--switch=$(COLOR)" --green "Preprocessing Fortran source to CMakeFiles/aerodynlib.dir/src/BEMT.f90.i"
	cd /d D:\Study\Graduation_Project\openfast\cmake-build-debug\modules\aerodyn && C:\Software\msys64\mingw64\bin\gfortran.exe $(Fortran_DEFINES) $(Fortran_INCLUDES) $(Fortran_FLAGS) -E D:\Study\Graduation_Project\openfast\modules\aerodyn\src\BEMT.f90 > CMakeFiles\aerodynlib.dir\src\BEMT.f90.i

modules/aerodyn/CMakeFiles/aerodynlib.dir/src/BEMT.f90.s: cmake_force
	@$(CMAKE_COMMAND) -E cmake_echo_color "--switch=$(COLOR)" --green "Compiling Fortran source to assembly CMakeFiles/aerodynlib.dir/src/BEMT.f90.s"
	cd /d D:\Study\Graduation_Project\openfast\cmake-build-debug\modules\aerodyn && C:\Software\msys64\mingw64\bin\gfortran.exe $(Fortran_DEFINES) $(Fortran_INCLUDES) $(Fortran_FLAGS) -S D:\Study\Graduation_Project\openfast\modules\aerodyn\src\BEMT.f90 -o CMakeFiles\aerodynlib.dir\src\BEMT.f90.s

modules/aerodyn/CMakeFiles/aerodynlib.dir/src/DBEMT.f90.obj: modules/aerodyn/CMakeFiles/aerodynlib.dir/flags.make
modules/aerodyn/CMakeFiles/aerodynlib.dir/src/DBEMT.f90.obj: modules/aerodyn/CMakeFiles/aerodynlib.dir/includes_Fortran.rsp
modules/aerodyn/CMakeFiles/aerodynlib.dir/src/DBEMT.f90.obj: D:/Study/Graduation_Project/openfast/modules/aerodyn/src/DBEMT.f90
	@$(CMAKE_COMMAND) -E cmake_echo_color "--switch=$(COLOR)" --green --progress-dir=D:\Study\Graduation_Project\openfast\cmake-build-debug\CMakeFiles --progress-num=$(CMAKE_PROGRESS_6) "Building Fortran object modules/aerodyn/CMakeFiles/aerodynlib.dir/src/DBEMT.f90.obj"
	cd /d D:\Study\Graduation_Project\openfast\cmake-build-debug\modules\aerodyn && C:\Software\msys64\mingw64\bin\gfortran.exe $(Fortran_DEFINES) $(Fortran_INCLUDES) $(Fortran_FLAGS) -c D:\Study\Graduation_Project\openfast\modules\aerodyn\src\DBEMT.f90 -o CMakeFiles\aerodynlib.dir\src\DBEMT.f90.obj

modules/aerodyn/CMakeFiles/aerodynlib.dir/src/DBEMT.f90.i: cmake_force
	@$(CMAKE_COMMAND) -E cmake_echo_color "--switch=$(COLOR)" --green "Preprocessing Fortran source to CMakeFiles/aerodynlib.dir/src/DBEMT.f90.i"
	cd /d D:\Study\Graduation_Project\openfast\cmake-build-debug\modules\aerodyn && C:\Software\msys64\mingw64\bin\gfortran.exe $(Fortran_DEFINES) $(Fortran_INCLUDES) $(Fortran_FLAGS) -E D:\Study\Graduation_Project\openfast\modules\aerodyn\src\DBEMT.f90 > CMakeFiles\aerodynlib.dir\src\DBEMT.f90.i

modules/aerodyn/CMakeFiles/aerodynlib.dir/src/DBEMT.f90.s: cmake_force
	@$(CMAKE_COMMAND) -E cmake_echo_color "--switch=$(COLOR)" --green "Compiling Fortran source to assembly CMakeFiles/aerodynlib.dir/src/DBEMT.f90.s"
	cd /d D:\Study\Graduation_Project\openfast\cmake-build-debug\modules\aerodyn && C:\Software\msys64\mingw64\bin\gfortran.exe $(Fortran_DEFINES) $(Fortran_INCLUDES) $(Fortran_FLAGS) -S D:\Study\Graduation_Project\openfast\modules\aerodyn\src\DBEMT.f90 -o CMakeFiles\aerodynlib.dir\src\DBEMT.f90.s

modules/aerodyn/CMakeFiles/aerodynlib.dir/src/BEMTUncoupled.f90.obj: modules/aerodyn/CMakeFiles/aerodynlib.dir/flags.make
modules/aerodyn/CMakeFiles/aerodynlib.dir/src/BEMTUncoupled.f90.obj: modules/aerodyn/CMakeFiles/aerodynlib.dir/includes_Fortran.rsp
modules/aerodyn/CMakeFiles/aerodynlib.dir/src/BEMTUncoupled.f90.obj: D:/Study/Graduation_Project/openfast/modules/aerodyn/src/BEMTUncoupled.f90
	@$(CMAKE_COMMAND) -E cmake_echo_color "--switch=$(COLOR)" --green --progress-dir=D:\Study\Graduation_Project\openfast\cmake-build-debug\CMakeFiles --progress-num=$(CMAKE_PROGRESS_7) "Building Fortran object modules/aerodyn/CMakeFiles/aerodynlib.dir/src/BEMTUncoupled.f90.obj"
	cd /d D:\Study\Graduation_Project\openfast\cmake-build-debug\modules\aerodyn && C:\Software\msys64\mingw64\bin\gfortran.exe $(Fortran_DEFINES) $(Fortran_INCLUDES) $(Fortran_FLAGS) -c D:\Study\Graduation_Project\openfast\modules\aerodyn\src\BEMTUncoupled.f90 -o CMakeFiles\aerodynlib.dir\src\BEMTUncoupled.f90.obj

modules/aerodyn/CMakeFiles/aerodynlib.dir/src/BEMTUncoupled.f90.i: cmake_force
	@$(CMAKE_COMMAND) -E cmake_echo_color "--switch=$(COLOR)" --green "Preprocessing Fortran source to CMakeFiles/aerodynlib.dir/src/BEMTUncoupled.f90.i"
	cd /d D:\Study\Graduation_Project\openfast\cmake-build-debug\modules\aerodyn && C:\Software\msys64\mingw64\bin\gfortran.exe $(Fortran_DEFINES) $(Fortran_INCLUDES) $(Fortran_FLAGS) -E D:\Study\Graduation_Project\openfast\modules\aerodyn\src\BEMTUncoupled.f90 > CMakeFiles\aerodynlib.dir\src\BEMTUncoupled.f90.i

modules/aerodyn/CMakeFiles/aerodynlib.dir/src/BEMTUncoupled.f90.s: cmake_force
	@$(CMAKE_COMMAND) -E cmake_echo_color "--switch=$(COLOR)" --green "Compiling Fortran source to assembly CMakeFiles/aerodynlib.dir/src/BEMTUncoupled.f90.s"
	cd /d D:\Study\Graduation_Project\openfast\cmake-build-debug\modules\aerodyn && C:\Software\msys64\mingw64\bin\gfortran.exe $(Fortran_DEFINES) $(Fortran_INCLUDES) $(Fortran_FLAGS) -S D:\Study\Graduation_Project\openfast\modules\aerodyn\src\BEMTUncoupled.f90 -o CMakeFiles\aerodynlib.dir\src\BEMTUncoupled.f90.s

modules/aerodyn/CMakeFiles/aerodynlib.dir/src/mod_root1dim.f90.obj: modules/aerodyn/CMakeFiles/aerodynlib.dir/flags.make
modules/aerodyn/CMakeFiles/aerodynlib.dir/src/mod_root1dim.f90.obj: modules/aerodyn/CMakeFiles/aerodynlib.dir/includes_Fortran.rsp
modules/aerodyn/CMakeFiles/aerodynlib.dir/src/mod_root1dim.f90.obj: D:/Study/Graduation_Project/openfast/modules/aerodyn/src/mod_root1dim.f90
	@$(CMAKE_COMMAND) -E cmake_echo_color "--switch=$(COLOR)" --green --progress-dir=D:\Study\Graduation_Project\openfast\cmake-build-debug\CMakeFiles --progress-num=$(CMAKE_PROGRESS_8) "Building Fortran object modules/aerodyn/CMakeFiles/aerodynlib.dir/src/mod_root1dim.f90.obj"
	cd /d D:\Study\Graduation_Project\openfast\cmake-build-debug\modules\aerodyn && C:\Software\msys64\mingw64\bin\gfortran.exe $(Fortran_DEFINES) $(Fortran_INCLUDES) $(Fortran_FLAGS) -c D:\Study\Graduation_Project\openfast\modules\aerodyn\src\mod_root1dim.f90 -o CMakeFiles\aerodynlib.dir\src\mod_root1dim.f90.obj

modules/aerodyn/CMakeFiles/aerodynlib.dir/src/mod_root1dim.f90.i: cmake_force
	@$(CMAKE_COMMAND) -E cmake_echo_color "--switch=$(COLOR)" --green "Preprocessing Fortran source to CMakeFiles/aerodynlib.dir/src/mod_root1dim.f90.i"
	cd /d D:\Study\Graduation_Project\openfast\cmake-build-debug\modules\aerodyn && C:\Software\msys64\mingw64\bin\gfortran.exe $(Fortran_DEFINES) $(Fortran_INCLUDES) $(Fortran_FLAGS) -E D:\Study\Graduation_Project\openfast\modules\aerodyn\src\mod_root1dim.f90 > CMakeFiles\aerodynlib.dir\src\mod_root1dim.f90.i

modules/aerodyn/CMakeFiles/aerodynlib.dir/src/mod_root1dim.f90.s: cmake_force
	@$(CMAKE_COMMAND) -E cmake_echo_color "--switch=$(COLOR)" --green "Compiling Fortran source to assembly CMakeFiles/aerodynlib.dir/src/mod_root1dim.f90.s"
	cd /d D:\Study\Graduation_Project\openfast\cmake-build-debug\modules\aerodyn && C:\Software\msys64\mingw64\bin\gfortran.exe $(Fortran_DEFINES) $(Fortran_INCLUDES) $(Fortran_FLAGS) -S D:\Study\Graduation_Project\openfast\modules\aerodyn\src\mod_root1dim.f90 -o CMakeFiles\aerodynlib.dir\src\mod_root1dim.f90.s

modules/aerodyn/CMakeFiles/aerodynlib.dir/src/AeroDyn_Types.f90.obj: modules/aerodyn/CMakeFiles/aerodynlib.dir/flags.make
modules/aerodyn/CMakeFiles/aerodynlib.dir/src/AeroDyn_Types.f90.obj: modules/aerodyn/CMakeFiles/aerodynlib.dir/includes_Fortran.rsp
modules/aerodyn/CMakeFiles/aerodynlib.dir/src/AeroDyn_Types.f90.obj: D:/Study/Graduation_Project/openfast/modules/aerodyn/src/AeroDyn_Types.f90
	@$(CMAKE_COMMAND) -E cmake_echo_color "--switch=$(COLOR)" --green --progress-dir=D:\Study\Graduation_Project\openfast\cmake-build-debug\CMakeFiles --progress-num=$(CMAKE_PROGRESS_9) "Building Fortran object modules/aerodyn/CMakeFiles/aerodynlib.dir/src/AeroDyn_Types.f90.obj"
	cd /d D:\Study\Graduation_Project\openfast\cmake-build-debug\modules\aerodyn && C:\Software\msys64\mingw64\bin\gfortran.exe $(Fortran_DEFINES) $(Fortran_INCLUDES) $(Fortran_FLAGS) -c D:\Study\Graduation_Project\openfast\modules\aerodyn\src\AeroDyn_Types.f90 -o CMakeFiles\aerodynlib.dir\src\AeroDyn_Types.f90.obj

modules/aerodyn/CMakeFiles/aerodynlib.dir/src/AeroDyn_Types.f90.i: cmake_force
	@$(CMAKE_COMMAND) -E cmake_echo_color "--switch=$(COLOR)" --green "Preprocessing Fortran source to CMakeFiles/aerodynlib.dir/src/AeroDyn_Types.f90.i"
	cd /d D:\Study\Graduation_Project\openfast\cmake-build-debug\modules\aerodyn && C:\Software\msys64\mingw64\bin\gfortran.exe $(Fortran_DEFINES) $(Fortran_INCLUDES) $(Fortran_FLAGS) -E D:\Study\Graduation_Project\openfast\modules\aerodyn\src\AeroDyn_Types.f90 > CMakeFiles\aerodynlib.dir\src\AeroDyn_Types.f90.i

modules/aerodyn/CMakeFiles/aerodynlib.dir/src/AeroDyn_Types.f90.s: cmake_force
	@$(CMAKE_COMMAND) -E cmake_echo_color "--switch=$(COLOR)" --green "Compiling Fortran source to assembly CMakeFiles/aerodynlib.dir/src/AeroDyn_Types.f90.s"
	cd /d D:\Study\Graduation_Project\openfast\cmake-build-debug\modules\aerodyn && C:\Software\msys64\mingw64\bin\gfortran.exe $(Fortran_DEFINES) $(Fortran_INCLUDES) $(Fortran_FLAGS) -S D:\Study\Graduation_Project\openfast\modules\aerodyn\src\AeroDyn_Types.f90 -o CMakeFiles\aerodynlib.dir\src\AeroDyn_Types.f90.s

modules/aerodyn/CMakeFiles/aerodynlib.dir/src/BEMT_Types.f90.obj: modules/aerodyn/CMakeFiles/aerodynlib.dir/flags.make
modules/aerodyn/CMakeFiles/aerodynlib.dir/src/BEMT_Types.f90.obj: modules/aerodyn/CMakeFiles/aerodynlib.dir/includes_Fortran.rsp
modules/aerodyn/CMakeFiles/aerodynlib.dir/src/BEMT_Types.f90.obj: D:/Study/Graduation_Project/openfast/modules/aerodyn/src/BEMT_Types.f90
	@$(CMAKE_COMMAND) -E cmake_echo_color "--switch=$(COLOR)" --green --progress-dir=D:\Study\Graduation_Project\openfast\cmake-build-debug\CMakeFiles --progress-num=$(CMAKE_PROGRESS_10) "Building Fortran object modules/aerodyn/CMakeFiles/aerodynlib.dir/src/BEMT_Types.f90.obj"
	cd /d D:\Study\Graduation_Project\openfast\cmake-build-debug\modules\aerodyn && C:\Software\msys64\mingw64\bin\gfortran.exe $(Fortran_DEFINES) $(Fortran_INCLUDES) $(Fortran_FLAGS) -c D:\Study\Graduation_Project\openfast\modules\aerodyn\src\BEMT_Types.f90 -o CMakeFiles\aerodynlib.dir\src\BEMT_Types.f90.obj

modules/aerodyn/CMakeFiles/aerodynlib.dir/src/BEMT_Types.f90.i: cmake_force
	@$(CMAKE_COMMAND) -E cmake_echo_color "--switch=$(COLOR)" --green "Preprocessing Fortran source to CMakeFiles/aerodynlib.dir/src/BEMT_Types.f90.i"
	cd /d D:\Study\Graduation_Project\openfast\cmake-build-debug\modules\aerodyn && C:\Software\msys64\mingw64\bin\gfortran.exe $(Fortran_DEFINES) $(Fortran_INCLUDES) $(Fortran_FLAGS) -E D:\Study\Graduation_Project\openfast\modules\aerodyn\src\BEMT_Types.f90 > CMakeFiles\aerodynlib.dir\src\BEMT_Types.f90.i

modules/aerodyn/CMakeFiles/aerodynlib.dir/src/BEMT_Types.f90.s: cmake_force
	@$(CMAKE_COMMAND) -E cmake_echo_color "--switch=$(COLOR)" --green "Compiling Fortran source to assembly CMakeFiles/aerodynlib.dir/src/BEMT_Types.f90.s"
	cd /d D:\Study\Graduation_Project\openfast\cmake-build-debug\modules\aerodyn && C:\Software\msys64\mingw64\bin\gfortran.exe $(Fortran_DEFINES) $(Fortran_INCLUDES) $(Fortran_FLAGS) -S D:\Study\Graduation_Project\openfast\modules\aerodyn\src\BEMT_Types.f90 -o CMakeFiles\aerodynlib.dir\src\BEMT_Types.f90.s

modules/aerodyn/CMakeFiles/aerodynlib.dir/src/DBEMT_Types.f90.obj: modules/aerodyn/CMakeFiles/aerodynlib.dir/flags.make
modules/aerodyn/CMakeFiles/aerodynlib.dir/src/DBEMT_Types.f90.obj: modules/aerodyn/CMakeFiles/aerodynlib.dir/includes_Fortran.rsp
modules/aerodyn/CMakeFiles/aerodynlib.dir/src/DBEMT_Types.f90.obj: D:/Study/Graduation_Project/openfast/modules/aerodyn/src/DBEMT_Types.f90
	@$(CMAKE_COMMAND) -E cmake_echo_color "--switch=$(COLOR)" --green --progress-dir=D:\Study\Graduation_Project\openfast\cmake-build-debug\CMakeFiles --progress-num=$(CMAKE_PROGRESS_11) "Building Fortran object modules/aerodyn/CMakeFiles/aerodynlib.dir/src/DBEMT_Types.f90.obj"
	cd /d D:\Study\Graduation_Project\openfast\cmake-build-debug\modules\aerodyn && C:\Software\msys64\mingw64\bin\gfortran.exe $(Fortran_DEFINES) $(Fortran_INCLUDES) $(Fortran_FLAGS) -c D:\Study\Graduation_Project\openfast\modules\aerodyn\src\DBEMT_Types.f90 -o CMakeFiles\aerodynlib.dir\src\DBEMT_Types.f90.obj

modules/aerodyn/CMakeFiles/aerodynlib.dir/src/DBEMT_Types.f90.i: cmake_force
	@$(CMAKE_COMMAND) -E cmake_echo_color "--switch=$(COLOR)" --green "Preprocessing Fortran source to CMakeFiles/aerodynlib.dir/src/DBEMT_Types.f90.i"
	cd /d D:\Study\Graduation_Project\openfast\cmake-build-debug\modules\aerodyn && C:\Software\msys64\mingw64\bin\gfortran.exe $(Fortran_DEFINES) $(Fortran_INCLUDES) $(Fortran_FLAGS) -E D:\Study\Graduation_Project\openfast\modules\aerodyn\src\DBEMT_Types.f90 > CMakeFiles\aerodynlib.dir\src\DBEMT_Types.f90.i

modules/aerodyn/CMakeFiles/aerodynlib.dir/src/DBEMT_Types.f90.s: cmake_force
	@$(CMAKE_COMMAND) -E cmake_echo_color "--switch=$(COLOR)" --green "Compiling Fortran source to assembly CMakeFiles/aerodynlib.dir/src/DBEMT_Types.f90.s"
	cd /d D:\Study\Graduation_Project\openfast\cmake-build-debug\modules\aerodyn && C:\Software\msys64\mingw64\bin\gfortran.exe $(Fortran_DEFINES) $(Fortran_INCLUDES) $(Fortran_FLAGS) -S D:\Study\Graduation_Project\openfast\modules\aerodyn\src\DBEMT_Types.f90 -o CMakeFiles\aerodynlib.dir\src\DBEMT_Types.f90.s

modules/aerodyn/CMakeFiles/aerodynlib.dir/src/AeroAcoustics_TNO.f90.obj: modules/aerodyn/CMakeFiles/aerodynlib.dir/flags.make
modules/aerodyn/CMakeFiles/aerodynlib.dir/src/AeroAcoustics_TNO.f90.obj: modules/aerodyn/CMakeFiles/aerodynlib.dir/includes_Fortran.rsp
modules/aerodyn/CMakeFiles/aerodynlib.dir/src/AeroAcoustics_TNO.f90.obj: D:/Study/Graduation_Project/openfast/modules/aerodyn/src/AeroAcoustics_TNO.f90
	@$(CMAKE_COMMAND) -E cmake_echo_color "--switch=$(COLOR)" --green --progress-dir=D:\Study\Graduation_Project\openfast\cmake-build-debug\CMakeFiles --progress-num=$(CMAKE_PROGRESS_12) "Building Fortran object modules/aerodyn/CMakeFiles/aerodynlib.dir/src/AeroAcoustics_TNO.f90.obj"
	cd /d D:\Study\Graduation_Project\openfast\cmake-build-debug\modules\aerodyn && C:\Software\msys64\mingw64\bin\gfortran.exe $(Fortran_DEFINES) $(Fortran_INCLUDES) $(Fortran_FLAGS) -c D:\Study\Graduation_Project\openfast\modules\aerodyn\src\AeroAcoustics_TNO.f90 -o CMakeFiles\aerodynlib.dir\src\AeroAcoustics_TNO.f90.obj

modules/aerodyn/CMakeFiles/aerodynlib.dir/src/AeroAcoustics_TNO.f90.i: cmake_force
	@$(CMAKE_COMMAND) -E cmake_echo_color "--switch=$(COLOR)" --green "Preprocessing Fortran source to CMakeFiles/aerodynlib.dir/src/AeroAcoustics_TNO.f90.i"
	cd /d D:\Study\Graduation_Project\openfast\cmake-build-debug\modules\aerodyn && C:\Software\msys64\mingw64\bin\gfortran.exe $(Fortran_DEFINES) $(Fortran_INCLUDES) $(Fortran_FLAGS) -E D:\Study\Graduation_Project\openfast\modules\aerodyn\src\AeroAcoustics_TNO.f90 > CMakeFiles\aerodynlib.dir\src\AeroAcoustics_TNO.f90.i

modules/aerodyn/CMakeFiles/aerodynlib.dir/src/AeroAcoustics_TNO.f90.s: cmake_force
	@$(CMAKE_COMMAND) -E cmake_echo_color "--switch=$(COLOR)" --green "Compiling Fortran source to assembly CMakeFiles/aerodynlib.dir/src/AeroAcoustics_TNO.f90.s"
	cd /d D:\Study\Graduation_Project\openfast\cmake-build-debug\modules\aerodyn && C:\Software\msys64\mingw64\bin\gfortran.exe $(Fortran_DEFINES) $(Fortran_INCLUDES) $(Fortran_FLAGS) -S D:\Study\Graduation_Project\openfast\modules\aerodyn\src\AeroAcoustics_TNO.f90 -o CMakeFiles\aerodynlib.dir\src\AeroAcoustics_TNO.f90.s

modules/aerodyn/CMakeFiles/aerodynlib.dir/src/AeroAcoustics.f90.obj: modules/aerodyn/CMakeFiles/aerodynlib.dir/flags.make
modules/aerodyn/CMakeFiles/aerodynlib.dir/src/AeroAcoustics.f90.obj: modules/aerodyn/CMakeFiles/aerodynlib.dir/includes_Fortran.rsp
modules/aerodyn/CMakeFiles/aerodynlib.dir/src/AeroAcoustics.f90.obj: D:/Study/Graduation_Project/openfast/modules/aerodyn/src/AeroAcoustics.f90
	@$(CMAKE_COMMAND) -E cmake_echo_color "--switch=$(COLOR)" --green --progress-dir=D:\Study\Graduation_Project\openfast\cmake-build-debug\CMakeFiles --progress-num=$(CMAKE_PROGRESS_13) "Building Fortran object modules/aerodyn/CMakeFiles/aerodynlib.dir/src/AeroAcoustics.f90.obj"
	cd /d D:\Study\Graduation_Project\openfast\cmake-build-debug\modules\aerodyn && C:\Software\msys64\mingw64\bin\gfortran.exe $(Fortran_DEFINES) $(Fortran_INCLUDES) $(Fortran_FLAGS) -c D:\Study\Graduation_Project\openfast\modules\aerodyn\src\AeroAcoustics.f90 -o CMakeFiles\aerodynlib.dir\src\AeroAcoustics.f90.obj

modules/aerodyn/CMakeFiles/aerodynlib.dir/src/AeroAcoustics.f90.i: cmake_force
	@$(CMAKE_COMMAND) -E cmake_echo_color "--switch=$(COLOR)" --green "Preprocessing Fortran source to CMakeFiles/aerodynlib.dir/src/AeroAcoustics.f90.i"
	cd /d D:\Study\Graduation_Project\openfast\cmake-build-debug\modules\aerodyn && C:\Software\msys64\mingw64\bin\gfortran.exe $(Fortran_DEFINES) $(Fortran_INCLUDES) $(Fortran_FLAGS) -E D:\Study\Graduation_Project\openfast\modules\aerodyn\src\AeroAcoustics.f90 > CMakeFiles\aerodynlib.dir\src\AeroAcoustics.f90.i

modules/aerodyn/CMakeFiles/aerodynlib.dir/src/AeroAcoustics.f90.s: cmake_force
	@$(CMAKE_COMMAND) -E cmake_echo_color "--switch=$(COLOR)" --green "Compiling Fortran source to assembly CMakeFiles/aerodynlib.dir/src/AeroAcoustics.f90.s"
	cd /d D:\Study\Graduation_Project\openfast\cmake-build-debug\modules\aerodyn && C:\Software\msys64\mingw64\bin\gfortran.exe $(Fortran_DEFINES) $(Fortran_INCLUDES) $(Fortran_FLAGS) -S D:\Study\Graduation_Project\openfast\modules\aerodyn\src\AeroAcoustics.f90 -o CMakeFiles\aerodynlib.dir\src\AeroAcoustics.f90.s

modules/aerodyn/CMakeFiles/aerodynlib.dir/src/AeroAcoustics_IO.f90.obj: modules/aerodyn/CMakeFiles/aerodynlib.dir/flags.make
modules/aerodyn/CMakeFiles/aerodynlib.dir/src/AeroAcoustics_IO.f90.obj: modules/aerodyn/CMakeFiles/aerodynlib.dir/includes_Fortran.rsp
modules/aerodyn/CMakeFiles/aerodynlib.dir/src/AeroAcoustics_IO.f90.obj: D:/Study/Graduation_Project/openfast/modules/aerodyn/src/AeroAcoustics_IO.f90
	@$(CMAKE_COMMAND) -E cmake_echo_color "--switch=$(COLOR)" --green --progress-dir=D:\Study\Graduation_Project\openfast\cmake-build-debug\CMakeFiles --progress-num=$(CMAKE_PROGRESS_14) "Building Fortran object modules/aerodyn/CMakeFiles/aerodynlib.dir/src/AeroAcoustics_IO.f90.obj"
	cd /d D:\Study\Graduation_Project\openfast\cmake-build-debug\modules\aerodyn && C:\Software\msys64\mingw64\bin\gfortran.exe $(Fortran_DEFINES) $(Fortran_INCLUDES) $(Fortran_FLAGS) -c D:\Study\Graduation_Project\openfast\modules\aerodyn\src\AeroAcoustics_IO.f90 -o CMakeFiles\aerodynlib.dir\src\AeroAcoustics_IO.f90.obj

modules/aerodyn/CMakeFiles/aerodynlib.dir/src/AeroAcoustics_IO.f90.i: cmake_force