# CMAKE generated file: DO NOT EDIT!
# Generated by "MinGW Makefiles" Generator, CMake Version 3.27

modules/aerodyn/CMakeFiles/aerodynlib.dir/src/AeroAcoustics.f90.obj
 D:/Study/Graduation_Project/openfast/modules/aerodyn/src/AeroAcoustics.f90
modules/aerodyn/CMakeFiles/aerodynlib.dir/src/AeroAcoustics_IO.f90.obj
 D:/Study/Graduation_Project/openfast/modules/aerodyn/src/AeroAcoustics_IO.f90
modules/aerodyn/CMakeFiles/aerodynlib.dir/src/AeroAcoustics_TNO.f90.obj
 D:/Study/Graduation_Project/openfast/modules/aerodyn/src/AeroAcoustics_TNO.f90
modules/aerodyn/CMakeFiles/aerodynlib.dir/src/AeroAcoustics_Types.f90.obj
 D:/Study/Graduation_Project/openfast/modules/aerodyn/src/AeroAcoustics_Types.f90
modules/aerodyn/CMakeFiles/aerodynlib.dir/src/AeroDyn.f90.obj
 D:/Study/Graduation_Project/openfast/modules/aerodyn/src/AeroDyn.f90
modules/aerodyn/CMakeFiles/aerodynlib.dir/src/AeroDyn_AllBldNdOuts_IO.f90.obj
 D:/Study/Graduation_Project/openfast/modules/aerodyn/src/AeroDyn_AllBldNdOuts_IO.f90
modules/aerodyn/CMakeFiles/aerodynlib.dir/src/AeroDyn_IO.f90.obj
 D:/Study/Graduation_Project/openfast/modules/aerodyn/src/AeroDyn_IO.f90
modules/aerodyn/CMakeFiles/aerodynlib.dir/src/AeroDyn_IO_Params.f90.obj
 D:/Study/Graduation_Project/openfast/modules/aerodyn/src/AeroDyn_IO_Params.f90
modules/aerodyn/CMakeFiles/aerodynlib.dir/src/AeroDyn_Inflow.f90.obj
 D:/Study/Graduation_Project/openfast/modules/aerodyn/src/AeroDyn_Inflow.f90
modules/aerodyn/CMakeFiles/aerodynlib.dir/src/AeroDyn_Inflow_Types.f90.obj
 D:/Study/Graduation_Project/openfast/modules/aerodyn/src/AeroDyn_Inflow_Types.f90
modules/aerodyn/CMakeFiles/aerodynlib.dir/src/AeroDyn_Types.f90.obj
 D:/Study/Graduation_Project/openfast/modules/aerodyn/src/AeroDyn_Types.f90
modules/aerodyn/CMakeFiles/aerodynlib.dir/src/AirfoilInfo.f90.obj
 D:/Study/Graduation_Project/openfast/modules/aerodyn/src/AirfoilInfo.f90
modules/aerodyn/CMakeFiles/aerodynlib.dir/src/AirfoilInfo_Types.f90.obj
 D:/Study/Graduation_Project/openfast/modules/aerodyn/src/AirfoilInfo_Types.f90
modules/aerodyn/CMakeFiles/aerodynlib.dir/src/BEMT.f90.obj
 D:/Study/Graduation_Project/openfast/modules/aerodyn/src/BEMT.f90
modules/aerodyn/CMakeFiles/aerodynlib.dir/src/BEMTUncoupled.f90.obj
 D:/Study/Graduation_Project/openfast/modules/aerodyn/src/BEMTUncoupled.f90
modules/aerodyn/CMakeFiles/aerodynlib.dir/src/BEMT_Types.f90.obj
 D:/Study/Graduation_Project/openfast/modules/aerodyn/src/BEMT_Types.f90
modules/aerodyn/CMakeFiles/aerodynlib.dir/src/DBEMT.f90.obj
 D:/Study/Graduation_Project/openfast/modules/aerodyn/src/DBEMT.f90
modules/aerodyn/CMakeFiles/aerodynlib.dir/src/DBEMT_Types.f90.obj
 D:/Study/Graduation_Project/openfast/modules/aerodyn/src/DBEMT_Types.f90
modules/aerodyn/CMakeFiles/aerodynlib.dir/src/FVW.f90.obj
 D:/Study/Graduation_Project/openfast/modules/aerodyn/src/FVW.f90
modules/aerodyn/CMakeFiles/aerodynlib.dir/src/FVW_BiotSavart.f90.obj
 D:/Study/Graduation_Project/openfast/modules/aerodyn/src/FVW_BiotSavart.f90
modules/aerodyn/CMakeFiles/aerodynlib.dir/src/FVW_IO.f90.obj
 D:/Study/Graduation_Project/openfast/modules/aerodyn/src/FVW_IO.f90
modules/aerodyn/CMakeFiles/aerodynlib.dir/src/FVW_Subs.f90.obj
 D:/Study/Graduation_Project/openfast/modules/aerodyn/src/FVW_Subs.f90
modules/aerodyn/CMakeFiles/aerodynlib.dir/src/FVW_Tests.f90.obj
 D:/Study/Graduation_Project/openfast/modules/aerodyn/src/FVW_Tests.f90
modules/aerodyn/CMakeFiles/aerodynlib.dir/src/FVW_Types.f90.obj
 D:/Study/Graduation_Project/openfast/modules/aerodyn/src/FVW_Types.f90
modules/aerodyn/CMakeFiles/aerodynlib.dir/src/FVW_VortexTools.f90.obj
 D:/Study/Graduation_Project/openfast/modules/aerodyn/src/FVW_VortexTools.f90
modules/aerodyn/CMakeFiles/aerodynlib.dir/src/FVW_Wings.f90.obj
 D:/Study/Graduation_Project/openfast/modules/aerodyn/src/FVW_Wings.f90
modules/aerodyn/CMakeFiles/aerodynlib.dir/src/UnsteadyAero.f90.obj
 D:/Study/Graduation_Project/openfast/modules/aerodyn/src/UnsteadyAero.f90
modules/aerodyn/CMakeFiles/aerodynlib.dir/src/UnsteadyAero_Types.f90.obj
 D:/Study/Graduation_Project/openfast/modules/aerodyn/src/UnsteadyAero_Types.f90
modules/aerodyn/CMakeFiles/aerodynlib.dir/src/mod_root1dim.f90.obj
 D:/Study/Graduation_Project/openfast/modules/aerodyn/src/mod_root1dim.f90
