# CMAKE generated file: DO NOT EDIT!
# Generated by "MinGW Makefiles" Generator, CMake Version 3.27

modules/elastodyn/CMakeFiles/elastodynlib.dir/src/ED_UserSubs.f90.obj
 D:/Study/Graduation_Project/openfast/modules/elastodyn/src/ED_UserSubs.f90
modules/elastodyn/CMakeFiles/elastodynlib.dir/src/ElastoDyn.f90.obj
 D:/Study/Graduation_Project/openfast/modules/elastodyn/src/ElastoDyn.f90
modules/elastodyn/CMakeFiles/elastodynlib.dir/src/ElastoDyn_AllBldNdOuts_IO.f90.obj
 D:/Study/Graduation_Project/openfast/modules/elastodyn/src/ElastoDyn_AllBldNdOuts_IO.f90
modules/elastodyn/CMakeFiles/elastodynlib.dir/src/ElastoDyn_IO.f90.obj
 D:/Study/Graduation_Project/openfast/modules/elastodyn/src/ElastoDyn_IO.f90
modules/elastodyn/CMakeFiles/elastodynlib.dir/src/ElastoDyn_Types.f90.obj
 D:/Study/Graduation_Project/openfast/modules/elastodyn/src/ElastoDyn_Types.f90
