C:\Software\msys64\mingw64\bin\ar.exe qc libelastodynlib.a CMakeFiles/elastodynlib.dir/src/ElastoDyn.f90.obj CMakeFiles/elastodynlib.dir/src/ElastoDyn_IO.f90.obj CMakeFiles/elastodynlib.dir/src/ElastoDyn_AllBldNdOuts_IO.f90.obj CMakeFiles/elastodynlib.dir/src/ED_UserSubs.f90.obj CMakeFiles/elastodynlib.dir/src/ElastoDyn_Types.f90.obj
C:\Software\msys64\mingw64\bin\ranlib.exe libelastodynlib.a
