<?xml version="1.0" encoding="UTF-8"?>
<CodeBlocks_project_file>
	<FileVersion major="1" minor="6"/>
	<Project>
		<Option title="OpenFAST"/>
		<Option makefile_is_custom="1"/>
		<Option compiler="gcc"/>
		<Option virtualFolders="CMake Files\;CMake Files\reg_tests\;CMake Files\reg_tests\r-test\;CMake Files\reg_tests\r-test\glue-codes\;CMake Files\reg_tests\r-test\glue-codes\openfast\;CMake Files\reg_tests\r-test\glue-codes\openfast\5MW_Baseline\;CMake Files\reg_tests\r-test\glue-codes\openfast\5MW_Baseline\ServoData\;CMake Files\reg_tests\r-test\glue-codes\openfast\5MW_Baseline\ServoData\DISCON\;CMake Files\reg_tests\r-test\glue-codes\openfast\5MW_Baseline\ServoData\DISCON_ITI\;CMake Files\reg_tests\r-test\glue-codes\openfast\5MW_Baseline\ServoData\DISCON_OC3\;CMake Files\cmake\;CMake Files\modules\;CMake Files\modules\nwtc-library\;CMake Files\modules\version\;CMake Files\modules\inflowwind\;CMake Files\modules\aerodyn\;CMake Files\modules\aerodyn14\;CMake Files\modules\servodyn\;CMake Files\modules\elastodyn\;CMake Files\modules\beamdyn\;CMake Files\modules\subdyn\;CMake Files\modules\hydrodyn\;CMake Files\modules\orcaflex-interface\;CMake Files\modules\extptfm\;CMake Files\modules\feamooring\;CMake Files\modules\moordyn\;CMake Files\modules\icedyn\;CMake Files\modules\icefloe\;CMake Files\modules\wakedynamics\;CMake Files\modules\awae\;CMake Files\modules\map\;CMake Files\modules\turbsim\;CMake Files\modules\supercontroller\;CMake Files\modules\openfoam\;CMake Files\modules\openfast-library\;CMake Files\.git\;CMake Files\.git\refs\;CMake Files\.git\refs\heads\;CMake Files\glue-codes\;CMake Files\glue-codes\openfast\;CMake Files\unit_tests\;CMake Files\unit_tests\beamdyn\;CMake Files\unit_tests\nwtc-library\;CMake Files\unit_tests\aerodyn\;CMake Files\unit_tests\inflowwind\;CMake Files\unit_tests\version\;CMake Files\cmake-build-debug\;CMake Files\cmake-build-debug\unit_tests\;CMake Files\cmake-build-debug\unit_tests\pfunit-tmp\;"/>
		<Build>
			<Target title="all">
				<Option working_dir="D:/Study/Graduation_Project/openfast/cmake-build-debug"/>
				<Option type="4"/>
				<MakeCommands>
					<Build command="C:/Software/msys64/mingw64/bin/mingw32-make.exe -f &quot;D:/Study/Graduation_Project/openfast/cmake-build-debug/Makefile&quot;  VERBOSE=1 all"/>
					<CompileFile command="C:/Software/msys64/mingw64/bin/mingw32-make.exe -f &quot;D:/Study/Graduation_Project/openfast/cmake-build-debug/Makefile&quot;  VERBOSE=1 &quot;$file&quot;"/>
					<Clean command="C:/Software/msys64/mingw64/bin/mingw32-make.exe -f &quot;D:/Study/Graduation_Project/openfast/cmake-build-debug/Makefile&quot;  VERBOSE=1 clean"/>
					<DistClean command="C:/Software/msys64/mingw64/bin/mingw32-make.exe -f &quot;D:/Study/Graduation_Project/openfast/cmake-build-debug/Makefile&quot;  VERBOSE=1 clean"/>
				</MakeCommands>
			</Target>
			<Target title="Experimental">
				<Option working_dir="D:/Study/Graduation_Project/openfast/cmake-build-debug"/>
				<Option type="4"/>
				<MakeCommands>
					<Build command="C:/Software/msys64/mingw64/bin/mingw32-make.exe -f &quot;D:/Study/Graduation_Project/openfast/cmake-build-debug/Makefile&quot;  VERBOSE=1 Experimental"/>
					<CompileFile command="C:/Software/msys64/mingw64/bin/mingw32-make.exe -f &quot;D:/Study/Graduation_Project/openfast/cmake-build-debug/Makefile&quot;  VERBOSE=1 &quot;$file&quot;"/>
					<Clean command="C:/Software/msys64/mingw64/bin/mingw32-make.exe -f &quot;D:/Study/Graduation_Project/openfast/cmake-build-debug/Makefile&quot;  VERBOSE=1 clean"/>
					<DistClean command="C:/Software/msys64/mingw64/bin/mingw32-make.exe -f &quot;D:/Study/Graduation_Project/openfast/cmake-build-debug/Makefile&quot;  VERBOSE=1 clean"/>
				</MakeCommands>
			</Target>
			<Target title="Nightly">
				<Option working_dir="D:/Study/Graduation_Project/openfast/cmake-build-debug"/>
				<Option type="4"/>
				<MakeCommands>
					<Build command="C:/Software/msys64/mingw64/bin/mingw32-make.exe -f &quot;D:/Study/Graduation_Project/openfast/cmake-build-debug/Makefile&quot;  VERBOSE=1 Nightly"/>
					<CompileFile command="C:/Software/msys64/mingw64/bin/mingw32-make.exe -f &quot;D:/Study/Graduation_Project/openfast/cmake-build-debug/Makefile&quot;  VERBOSE=1 &quot;$file&quot;"/>
					<Clean command="C:/Software/msys64/mingw64/bin/mingw32-make.exe -f &quot;D:/Study/Graduation_Project/openfast/cmake-build-debug/Makefile&quot;  VERBOSE=1 clean"/>
					<DistClean command="C:/Software/msys64/mingw64/bin/mingw32-make.exe -f &quot;D:/Study/Graduation_Project/openfast/cmake-build-debug/Makefile&quot;  VERBOSE=1 clean"/>
				</MakeCommands>
			</Target>
			<Target title="Continuous">
				<Option working_dir="D:/Study/Graduation_Project/openfast/cmake-build-debug"/>
				<Option type="4"/>
				<MakeCommands>
					<Build command="C:/Software/msys64/mingw64/bin/mingw32-make.exe -f &quot;D:/Study/Graduation_Project/openfast/cmake-build-debug/Makefile&quot;  VERBOSE=1 Continuous"/>
					<CompileFile command="C:/Software/msys64/mingw64/bin/mingw32-make.exe -f &quot;D:/Study/Graduation_Project/openfast/cmake-build-debug/Makefile&quot;  VERBOSE=1 &quot;$file&quot;"/>
					<Clean command="C:/Software/msys64/mingw64/bin/mingw32-make.exe -f &quot;D:/Study/Graduation_Project/openfast/cmake-build-debug/Makefile&quot;  VERBOSE=1 clean"/>
					<DistClean command="C:/Software/msys64/mingw64/bin/mingw32-make.exe -f &quot;D:/Study/Graduation_Project/openfast/cmake-build-debug/Makefile&quot;  VERBOSE=1 clean"/>
				</MakeCommands>
			</Target>
			<Target title="test">
				<Option working_dir="D:/Study/Graduation_Project/openfast/cmake-build-debug"/>
				<Option type="4"/>
				<MakeCommands>
					<Build command="C:/Software/msys64/mingw64/bin/mingw32-make.exe -f &quot;D:/Study/Graduation_Project/openfast/cmake-build-debug/Makefile&quot;  VERBOSE=1 test"/>
					<CompileFile command="C:/Software/msys64/mingw64/bin/mingw32-make.exe -f &quot;D:/Study/Graduation_Project/openfast/cmake-build-debug/Makefile&quot;  VERBOSE=1 &quot;$file&quot;"/>
					<Clean command="C:/Software/msys64/mingw64/bin/mingw32-make.exe -f &quot;D:/Study/Graduation_Project/openfast/cmake-build-debug/Makefile&quot;  VERBOSE=1 clean"/>
					<DistClean command="C:/Software/msys64/mingw64/bin/mingw32-make.exe -f &quot;D:/Study/Graduation_Project/openfast/cmake-build-debug/Makefile&quot;  VERBOSE=1 clean"/>
				</MakeCommands>
			</Target>
			<Target title="edit_cache">
				<Option working_dir="D:/Study/Graduation_Project/openfast/cmake-build-debug"/>
				<Option type="4"/>
				<MakeCommands>
					<Build command="C:/Software/msys64/mingw64/bin/mingw32-make.exe -f &quot;D:/Study/Graduation_Project/openfast/cmake-build-debug/Makefile&quot;  VERBOSE=1 edit_cache"/>
					<CompileFile command="C:/Software/msys64/mingw64/bin/mingw32-make.exe -f &quot;D:/Study/Graduation_Project/openfast/cmake-build-debug/Makefile&quot;  VERBOSE=1 &quot;$file&quot;"/>
					<Clean command="C:/Software/msys64/mingw64/bin/mingw32-make.exe -f &quot;D:/Study/Graduation_Project/openfast/cmake-build-debug/Makefile&quot;  VERBOSE=1 clean"/>
					<DistClean command="C:/Software/msys64/mingw64/bin/mingw32-make.exe -f &quot;D:/Study/Graduation_Project/openfast/cmake-build-debug/Makefile&quot;  VERBOSE=1 clean"/>
				</MakeCommands>
			</Target>
			<Target title="rebuild_cache">
				<Option working_dir="D:/Study/Graduation_Project/openfast/cmake-build-debug"/>
				<Option type="4"/>
				<MakeCommands>
					<Build command="C:/Software/msys64/mingw64/bin/mingw32-make.exe -f &quot;D:/Study/Graduation_Project/openfast/cmake-build-debug/Makefile&quot;  VERBOSE=1 rebuild_cache"/>
					<CompileFile command="C:/Software/msys64/mingw64/bin/mingw32-make.exe -f &quot;D:/Study/Graduation_Project/openfast/cmake-build-debug/Makefile&quot;  VERBOSE=1 &quot;$file&quot;"/>
					<Clean command="C:/Software/msys64/mingw64/bin/mingw32-make.exe -f &quot;D:/Study/Graduation_Project/openfast/cmake-build-debug/Makefile&quot;  VERBOSE=1 clean"/>
					<DistClean command="C:/Software/msys64/mingw64/bin/mingw32-make.exe -f &quot;D:/Study/Graduation_Project/openfast/cmake-build-debug/Makefile&quot;  VERBOSE=1 clean"/>
				</MakeCommands>
			</Target>
			<Target title="list_install_components">
				<Option working_dir="D:/Study/Graduation_Project/openfast/cmake-build-debug"/>
				<Option type="4"/>
				<MakeCommands>
					<Build command="C:/Software/msys64/mingw64/bin/mingw32-make.exe -f &quot;D:/Study/Graduation_Project/openfast/cmake-build-debug/Makefile&quot;  VERBOSE=1 list_install_components"/>
					<CompileFile command="C:/Software/msys64/mingw64/bin/mingw32-make.exe -f &quot;D:/Study/Graduation_Project/openfast/cmake-build-debug/Makefile&quot;  VERBOSE=1 &quot;$file&quot;"/>
					<Clean command="C:/Software/msys64/mingw64/bin/mingw32-make.exe -f &quot;D:/Study/Graduation_Project/openfast/cmake-build-debug/Makefile&quot;  VERBOSE=1 clean"/>
					<DistClean command="C:/Software/msys64/mingw64/bin/mingw32-make.exe -f &quot;D:/Study/Graduation_Project/openfast/cmake-build-debug/Makefile&quot;  VERBOSE=1 clean"/>
				</MakeCommands>
			</Target>
			<Target title="install">
				<Option working_dir="D:/Study/Graduation_Project/openfast/cmake-build-debug"/>
				<Option type="4"/>
				<MakeCommands>
					<Build command="C:/Software/msys64/mingw64/bin/mingw32-make.exe -f &quot;D:/Study/Graduation_Project/openfast/cmake-build-debug/Makefile&quot;  VERBOSE=1 install"/>
					<CompileFile command="C:/Software/msys64/mingw64/bin/mingw32-make.exe -f &quot;D:/Study/Graduation_Project/openfast/cmake-build-debug/Makefile&quot;  VERBOSE=1 &quot;$file&quot;"/>
					<Clean command="C:/Software/msys64/mingw64/bin/mingw32-make.exe -f &quot;D:/Study/Graduation_Project/openfast/cmake-build-debug/Makefile&quot;  VERBOSE=1 clean"/>
					<DistClean command="C:/Software/msys64/mingw64/bin/mingw32-make.exe -f &quot;D:/Study/Graduation_Project/openfast/cmake-build-debug/Makefile&quot;  VERBOSE=1 clean"/>
				</MakeCommands>
			</Target>
			<Target title="install/local">
				<Option working_dir="D:/Study/Graduation_Project/openfast/cmake-build-debug"/>
				<Option type="4"/>
				<MakeCommands>
					<Build command="C:/Software/msys64/mingw64/bin/mingw32-make.exe -f &quot;D:/Study/Graduation_Project/openfast/cmake-build-debug/Makefile&quot;  VERBOSE=1 install/local"/>
					<CompileFile command="C:/Software/msys64/mingw64/bin/mingw32-make.exe -f &quot;D:/Study/Graduation_Project/openfast/cmake-build-debug/Makefile&quot;  VERBOSE=1 &quot;$file&quot;"/>
					<Clean command="C:/Software/msys64/mingw64/bin/mingw32-make.exe -f &quot;D:/Study/Graduation_Project/openfast/cmake-build-debug/Makefile&quot;  VERBOSE=1 clean"/>
					<DistClean command="C:/Software/msys64/mingw64/bin/mingw32-make.exe -f &quot;D:/Study/Graduation_Project/openfast/cmake-build-debug/Makefile&quot;  VERBOSE=1 clean"/>
				</MakeCommands>
			</Target>
			<Target title="install/strip">
				<Option working_dir="D:/Study/Graduation_Project/openfast/cmake-build-debug"/>
				<Option type="4"/>
				<MakeCommands>
					<Build command="C:/Software/msys64/mingw64/bin/mingw32-make.exe -f &quot;D:/Study/Graduation_Project/openfast/cmake-build-debug/Makefile&quot;  VERBOSE=1 install/strip"/>
					<CompileFile command="C:/Software/msys64/mingw64/bin/mingw32-make.exe -f &quot;D:/Study/Graduation_Project/openfast/cmake-build-debug/Makefile&quot;  VERBOSE=1 &quot;$file&quot;"/>
					<Clean command="C:/Software/msys64/mingw64/bin/mingw32-make.exe -f &quot;D:/Study/Graduation_Project/openfast/cmake-build-debug/Makefile&quot;  VERBOSE=1 clean"/>
					<DistClean command="C:/Software/msys64/mingw64/bin/mingw32-make.exe -f &quot;D:/Study/Graduation_Project/openfast/cmake-build-debug/Makefile&quot;  VERBOSE=1 clean"/>
				</MakeCommands>
			</Target>
			<Target title="nwtclibs">
				<Option output="D:/Study/Graduation_Project/openfast/cmake-build-debug/modules/nwtc-library/libnwtclibs.a" prefix_auto="0" extension_auto="0"/>
				<Option working_dir="D:/Study/Graduation_Project/openfast/cmake-build-debug/modules/nwtc-library"/>
				<Option object_output="./"/>
				<Option type="2"/>
				<Option compiler="gcc"/>
				<Compiler>
					<Add option="-DUSE_DLL_INTERFACE"/>
					<Add option="-DHAS_FORTRAN2008_FEATURES"/>
					<Add option="-DOPENFAST_DOUBLE_PRECISION"/>
					<Add directory="D:/Study/Graduation_Project/openfast/cmake-build-debug/ftnmods"/>
					<Add directory="C:/Software/msys64/mingw64/bin/../lib/gcc/x86_64-w64-mingw32/13.2.0/../../../../include/c++/13.2.0"/>
					<Add directory="C:/Software/msys64/mingw64/bin/../lib/gcc/x86_64-w64-mingw32/13.2.0/../../../../include/c++/13.2.0/x86_64-w64-mingw32"/>
					<Add directory="C:/Software/msys64/mingw64/bin/../lib/gcc/x86_64-w64-mingw32/13.2.0/../../../../include/c++/13.2.0/backward"/>
					<Add directory="C:/Software/msys64/mingw64/bin/../lib/gcc/x86_64-w64-mingw32/13.2.0/include"/>
					<Add directory="C:/Software/msys64/mingw64/bin/../lib/gcc/x86_64-w64-mingw32/13.2.0/../../../../include"/>
					<Add directory="C:/Software/msys64/mingw64/bin/../lib/gcc/x86_64-w64-mingw32/13.2.0/include-fixed"/>
				</Compiler>
				<MakeCommands>
					<Build command="C:/Software/msys64/mingw64/bin/mingw32-make.exe -f &quot;D:/Study/Graduation_Project/openfast/cmake-build-debug/modules/nwtc-library/Makefile&quot;  VERBOSE=1 nwtclibs"/>
					<CompileFile command="C:/Software/msys64/mingw64/bin/mingw32-make.exe -f &quot;D:/Study/Graduation_Project/openfast/cmake-build-debug/modules/nwtc-library/Makefile&quot;  VERBOSE=1 &quot;$file&quot;"/>
					<Clean command="C:/Software/msys64/mingw64/bin/mingw32-make.exe -f &quot;D:/Study/Graduation_Project/openfast/cmake-build-debug/modules/nwtc-library/Makefile&quot;  VERBOSE=1 clean"/>
					<DistClean command="C:/Software/msys64/mingw64/bin/mingw32-make.exe -f &quot;D:/Study/Graduation_Project/openfast/cmake-build-debug/modules/nwtc-library/Makefile&quot;  VERBOSE=1 clean"/>
				</MakeCommands>
			</Target>
			<Target title="nwtclibs/fast">
				<Option output="D:/Study/Graduation_Project/openfast/cmake-build-debug/modules/nwtc-library/libnwtclibs.a" prefix_auto="0" extension_auto="0"/>
				<Option working_dir="D:/Study/Graduation_Project/openfast/cmake-build-debug/modules/nwtc-library"/>
				<Option object_output="./"/>
				<Option type="2"/>
				<Option compiler="gcc"/>
				<Compiler>
					<Add option="-DUSE_DLL_INTERFACE"/>
					<Add option="-DHAS_FORTRAN2008_FEATURES"/>
					<Add option="-DOPENFAST_DOUBLE_PRECISION"/>
					<Add directory="D:/Study/Graduation_Project/openfast/cmake-build-debug/ftnmods"/>
					<Add directory="C:/Software/msys64/mingw64/bin/../lib/gcc/x86_64-w64-mingw32/13.2.0/../../../../include/c++/13.2.0"/>
					<Add directory="C:/Software/msys64/mingw64/bin/../lib/gcc/x86_64-w64-mingw32/13.2.0/../../../../include/c++/13.2.0/x86_64-w64-mingw32"/>
					<Add directory="C:/Software/msys64/mingw64/bin/../lib/gcc/x86_64-w64-mingw32/13.2.0/../../../../include/c++/13.2.0/backward"/>
					<Add directory="C:/Software/msys64/mingw64/bin/../lib/gcc/x86_64-w64-mingw32/13.2.0/include"/>
					<Add directory="C:/Software/msys64/mingw64/bin/../lib/gcc/x86_64-w64-mingw32/13.2.0/../../../../include"/>
					<Add directory="C:/Software/msys64/mingw64/bin/../lib/gcc/x86_64-w64-mingw32/13.2.0/include-fixed"/>
				</Compiler>
				<MakeCommands>
					<Build command="C:/Software/msys64/mingw64/bin/mingw32-make.exe -f &quot;D:/Study/Graduation_Project/openfast/cmake-build-debug/modules/nwtc-library/Makefile&quot;  VERBOSE=1 nwtclibs/fast"/>
					<CompileFile command="C:/Software/msys64/mingw64/bin/mingw32-make.exe -f &quot;D:/Study/Graduation_Project/openfast/cmake-build-debug/modules/nwtc-library/Makefile&quot;  VERBOSE=1 &quot;$file&quot;"/>
					<Clean command="C:/Software/msys64/mingw64/bin/mingw32-make.exe -f &quot;D:/Study/Graduation_Project/openfast/cmake-build-debug/modules/nwtc-library/Makefile&quot;  VERBOSE=1 clean"/>
					<DistClean command="C:/Software/msys64/mingw64/bin/mingw32-make.exe -f &quot;D:/Study/Graduation_Project/openfast/cmake-build-debug/modules/nwtc-library/Makefile&quot;  VERBOSE=1 clean"/>
				</MakeCommands>
			</Target>
			<Target title="versioninfolib">
				<Option output="D:/Study/Graduation_Project/openfast/cmake-build-debug/modules/version/libversioninfolib.a" prefix_auto="0" extension_auto="0"/>
				<Option working_dir="D:/Study/Graduation_Project/openfast/cmake-build-debug/modules/version"/>
				<Option object_output="./"/>
				<Option type="2"/>
				<Option compiler="gcc"/>
				<Compiler>
					<Add option="-DHAS_FORTRAN2008_FEATURES"/>
					<Add option="-DOPENFAST_DOUBLE_PRECISION"/>
					<Add option="-DGIT_VERSION_INFO=&quot;-128-NOTFOUND&quot;"/>
					<Add directory="D:/Study/Graduation_Project/openfast/cmake-build-debug/ftnmods"/>
					<Add directory="C:/Software/msys64/mingw64/bin/../lib/gcc/x86_64-w64-mingw32/13.2.0/../../../../include/c++/13.2.0"/>
					<Add directory="C:/Software/msys64/mingw64/bin/../lib/gcc/x86_64-w64-mingw32/13.2.0/../../../../include/c++/13.2.0/x86_64-w64-mingw32"/>
					<Add directory="C:/Software/msys64/mingw64/bin/../lib/gcc/x86_64-w64-mingw32/13.2.0/../../../../include/c++/13.2.0/backward"/>
					<Add directory="C:/Software/msys64/mingw64/bin/../lib/gcc/x86_64-w64-mingw32/13.2.0/include"/>
					<Add directory="C:/Software/msys64/mingw64/bin/../lib/gcc/x86_64-w64-mingw32/13.2.0/../../../../include"/>
					<Add directory="C:/Software/msys64/mingw64/bin/../lib/gcc/x86_64-w64-mingw32/13.2.0/include-fixed"/>
				</Compiler>
				<MakeCommands>
					<Build command="C:/Software/msys64/mingw64/bin/mingw32-make.exe -f &quot;D:/Study/Graduation_Project/openfast/cmake-build-debug/modules/version/Makefile&quot;  VERBOSE=1 versioninfolib"/>
					<CompileFile command="C:/Software/msys64/mingw64/bin/mingw32-make.exe -f &quot;D:/Study/Graduation_Project/openfast/cmake-build-debug/modules/version/Makefile&quot;  VERBOSE=1 &quot;$file&quot;"/>
					<Clean command="C:/Software/msys64/mingw64/bin/mingw32-make.exe -f &quot;D:/Study/Graduation_Project/openfast/cmake-build-debug/modules/version/Makefile&quot;  VERBOSE=1 clean"/>
					<DistClean command="C:/Software/msys64/mingw64/bin/mingw32-make.exe -f &quot;D:/Study/Graduation_Project/openfast/cmake-build-debug/modules/version/Makefile&quot;  VERBOSE=1 clean"/>
				</MakeCommands>
			</Target>
			<Target title="versioninfolib/fast">
				<Option output="D:/Study/Graduation_Project/openfast/cmake-build-debug/modules/version/libversioninfolib.a" prefix_auto="0" extension_auto="0"/>
				<Option working_dir="D:/Study/Graduation_Project/openfast/cmake-build-debug/modules/version"/>
				<Option object_output="./"/>
				<Option type="2"/>
				<Option compiler="gcc"/>
				<Compiler>
					<Add option="-DHAS_FORTRAN2008_FEATURES"/>
					<Add option="-DOPENFAST_DOUBLE_PRECISION"/>
					<Add option="-DGIT_VERSION_INFO=&quot;-128-NOTFOUND&quot;"/>
					<Add directory="D:/Study/Graduation_Project/openfast/cmake-build-debug/ftnmods"/>
					<Add directory="C:/Software/msys64/mingw64/bin/../lib/gcc/x86_64-w64-mingw32/13.2.0/../../../../include/c++/13.2.0"/>
					<Add directory="C:/Software/msys64/mingw64/bin/../lib/gcc/x86_64-w64-mingw32/13.2.0/../../../../include/c++/13.2.0/x86_64-w64-mingw32"/>
					<Add directory="C:/Software/msys64/mingw64/bin/../lib/gcc/x86_64-w64-mingw32/13.2.0/../../../../include/c++/13.2.0/backward"/>
					<Add directory="C:/Software/msys64/mingw64/bin/../lib/gcc/x86_64-w64-mingw32/13.2.0/include"/>
					<Add directory="C:/Software/msys64/mingw64/bin/../lib/gcc/x86_64-w64-mingw32/13.2.0/../../../../include"/>
					<Add directory="C:/Software/msys64/mingw64/bin/../lib/gcc/x86_64-w64-mingw32/13.2.0/include-fixed"/>
				</Compiler>
				<MakeCommands>
					<Build command="C:/Software/msys64/mingw64/bin/mingw32-make.exe -f &quot;D:/Study/Graduation_Project/openfast/cmake-build-debug/modules/version/Makefile&quot;  VERBOSE=1 versioninfolib/fast"/>
					<CompileFile command="C:/Software/msys64/mingw64/bin/mingw32-make.exe -f &quot;D:/Study/Graduation_Project/openfast/cmake-build-debug/modules/version/Makefile&quot;  VERBOSE=1 &quot;$file&quot;"/>
					<Clean command="C:/Software/msys64/mingw64/bin/mingw32-make.exe -f &quot;D:/Study/Graduation_Project/openfast/cmake-build-debug/modules/version/Makefile&quot;  VERBOSE=1 clean"/>
					<DistClean command="C:/Software/msys64/mingw64/bin/mingw32-make.exe -f &quot;D:/Study/Graduation_Project/openfast/cmake-build-debug/modules/version/Makefile&quot;  VERBOSE=1 clean"/>
				</MakeCommands>
			</Target>
			<Target title="ifwlib">
				<Option output="D:/Study/Graduation_Project/openfast/cmake-build-debug/modules/inflowwind/libifwlib.a" prefix_auto="0" extension_auto="0"/>
				<Option working_dir="D:/Study/Graduation_Project/openfast/cmake-build-debug/modules/inflowwind"/>
				<Option object_output="./"/>
				<Option type="2"/>
				<Option compiler="gcc"/>
				<Compiler>
					<Add option="-DHAS_FORTRAN2008_FEATURES"/>
					<Add option="-DOPENFAST_DOUBLE_PRECISION"/>
					<Add directory="D:/Study/Graduation_Project/openfast/cmake-build-debug/ftnmods"/>
					<Add directory="C:/Software/msys64/mingw64/bin/../lib/gcc/x86_64-w64-mingw32/13.2.0/../../../../include/c++/13.2.0"/>
					<Add directory="C:/Software/msys64/mingw64/bin/../lib/gcc/x86_64-w64-mingw32/13.2.0/../../../../include/c++/13.2.0/x86_64-w64-mingw32"/>
					<Add directory="C:/Software/msys64/mingw64/bin/../lib/gcc/x86_64-w64-mingw32/13.2.0/../../../../include/c++/13.2.0/backward"/>
					<Add directory="C:/Software/msys64/mingw64/bin/../lib/gcc/x86_64-w64-mingw32/13.2.0/include"/>
					<Add directory="C:/Software/msys64/mingw64/bin/../lib/gcc/x86_64-w64-mingw32/13.2.0/../../../../include"/>
					<Add directory="C:/Software/msys64/mingw64/bin/../lib/gcc/x86_64-w64-mingw32/13.2.0/include-fixed"/>
				</Compiler>
				<MakeCommands>
					<Build command="C:/Software/msys64/mingw64/bin/mingw32-make.exe -f &quot;D:/Study/Graduation_Project/openfast/cmake-build-debug/modules/inflowwind/Makefile&quot;  VERBOSE=1 ifwlib"/>
					<CompileFile command="C:/Software/msys64/mingw64/bin/mingw32-make.exe -f &quot;D:/Study/Graduation_Project/openfast/cmake-build-debug/modules/inflowwind/Makefile&quot;  VERBOSE=1 &quot;$file&quot;"/>
					<Clean command="C:/Software/msys64/mingw64/bin/mingw32-make.exe -f &quot;D:/Study/Graduation_Project/openfast/cmake-build-debug/modules/inflowwind/Makefile&quot;  VERBOSE=1 clean"/>
					<DistClean command="C:/Software/msys64/mingw64/bin/mingw32-make.exe -f &quot;D:/Study/Graduation_Project/openfast/cmake-build-debug/modules/inflowwind/Makefile&quot;  VERBOSE=1 clean"/>
				</MakeCommands>
			</Target>
			<Target title="ifwlib/fast">
				<Option output="D:/Study/Graduation_Project/openfast/cmake-build-debug/modules/inflowwind/libifwlib.a" prefix_auto="0" extension_auto="0"/>
				<Option working_dir="D:/Study/Graduation_Project/openfast/cmake-build-debug/modules/inflowwind"/>
				<Option object_output="./"/>
				<Option type="2"/>
				<Option compiler="gcc"/>
				<Compiler>
					<Add option="-DHAS_FORTRAN2008_FEATURES"/>
					<Add option="-DOPENFAST_DOUBLE_PRECISION"/>
					<Add directory="D:/Study/Graduation_Project/openfast/cmake-build-debug/ftnmods"/>
					<Add directory="C:/Software/msys64/mingw64/bin/../lib/gcc/x86_64-w64-mingw32/13.2.0/../../../../include/c++/13.2.0"/>
					<Add directory="C:/Software/msys64/mingw64/bin/../lib/gcc/x86_64-w64-mingw32/13.2.0/../../../../include/c++/13.2.0/x86_64-w64-mingw32"/>
					<Add directory="C:/Software/msys64/mingw64/bin/../lib/gcc/x86_64-w64-mingw32/13.2.0/../../../../include/c++/13.2.0/backward"/>
					<Add directory="C:/Software/msys64/mingw64/bin/../lib/gcc/x86_64-w64-mingw32/13.2.0/include"/>
					<Add directory="C:/Software/msys64/mingw64/bin/../lib/gcc/x86_64-w64-mingw32/13.2.0/../../../../include"/>
					<Add directory="C:/Software/msys64/mingw64/bin/../lib/gcc/x86_64-w64-mingw32/13.2.0/include-fixed"/>
				</Compiler>
				<MakeCommands>
					<Build command="C:/Software/msys64/mingw64/bin/mingw32-make.exe -f &quot;D:/Study/Graduation_Project/openfast/cmake-build-debug/modules/inflowwind/Makefile&quot;  VERBOSE=1 ifwlib/fast"/>
					<CompileFile command="C:/Software/msys64/mingw64/bin/mingw32-make.exe -f &quot;D:/Study/Graduation_Project/openfast/cmake-build-debug/modules/inflowwind/Makefile&quot;  VERBOSE=1 &quot;$file&quot;"/>
					<Clean command="C:/Software/msys64/mingw64/bin/mingw32-make.exe -f &quot;D:/Study/Graduation_Project/openfast/cmake-build-debug/modules/inflowwind/Makefile&quot;  VERBOSE=1 clean"/>
					<DistClean command="C:/Software/msys64/mingw64/bin/mingw32-make.exe -f &quot;D:/Study/Graduation_Project/openfast/cmake-build-debug/modules/inflowwind/Makefile&quot;  VERBOSE=1 clean"/>
				</MakeCommands>
			</Target>
			<Target title="ifw_c_binding">
				<Option output="D:/Study/Graduation_Project/openfast/cmake-build-debug/modules/inflowwind/libifw_c_binding.dll" prefix_auto="0" extension_auto="0"/>
				<Option working_dir="D:/Study/Graduation_Project/openfast/cmake-build-debug/modules/inflowwind"/>
				<Option object_output="./"/>
				<Option type="3"/>
				<Option compiler="gcc"/>
				<Compiler>
					<Add option="-DHAS_FORTRAN2008_FEATURES"/>
					<Add option="-DOPENFAST_DOUBLE_PRECISION"/>
					<Add directory="D:/Study/Graduation_Project/openfast/cmake-build-debug/ftnmods"/>
					<Add directory="C:/Software/msys64/mingw64/bin/../lib/gcc/x86_64-w64-mingw32/13.2.0/../../../../include/c++/13.2.0"/>
					<Add directory="C:/Software/msys64/mingw64/bin/../lib/gcc/x86_64-w64-mingw32/13.2.0/../../../../include/c++/13.2.0/x86_64-w64-mingw32"/>
					<Add directory="C:/Software/msys64/mingw64/bin/../lib/gcc/x86_64-w64-mingw32/13.2.0/../../../../include/c++/13.2.0/backward"/>
					<Add directory="C:/Software/msys64/mingw64/bin/../lib/gcc/x86_64-w64-mingw32/13.2.0/include"/>
					<Add directory="C:/Software/msys64/mingw64/bin/../lib/gcc/x86_64-w64-mingw32/13.2.0/../../../../include"/>
					<Add directory="C:/Software/msys64/mingw64/bin/../lib/gcc/x86_64-w64-mingw32/13.2.0/include-fixed"/>
				</Compiler>
				<MakeCommands>
					<Build command="C:/Software/msys64/mingw64/bin/mingw32-make.exe -f &quot;D:/Study/Graduation_Project/openfast/cmake-build-debug/modules/inflowwind/Makefile&quot;  VERBOSE=1 ifw_c_binding"/>
					<CompileFile command="C:/Software/msys64/mingw64/bin/mingw32-make.exe -f &quot;D:/Study/Graduation_Project/openfast/cmake-build-debug/modules/inflowwind/Makefile&quot;  VERBOSE=1 &quot;$file&quot;"/>
					<Clean command="C:/Software/msys64/mingw64/bin/mingw32-make.exe -f &quot;D:/Study/Graduation_Project/openfast/cmake-build-debug/modules/inflowwind/Makefile&quot;  VERBOSE=1 clean"/>
					<DistClean command="C:/Software/msys64/mingw64/bin/mingw32-make.exe -f &quot;D:/Study/Graduation_Project/openfast/cmake-build-debug/modules/inflowwind/Makefile&quot;  VERBOSE=1 clean"/>
				</MakeCommands>
			</Target>
			<Target title="ifw_c_binding/fast">
				<Option output="D:/Study/Graduation_Project/openfast/cmake-build-debug/modules/inflowwind/libifw_c_binding.dll" prefix_auto="0" extension_auto="0"/>
				<Option working_dir="D:/Study/Graduation_Project/openfast/cmake-build-debug/modules/inflowwind"/>
				<Option object_output="./"/>
				<Option type="3"/>
				<Option compiler="gcc"/>
				<Compiler>
					<Add option="-DHAS_FORTRAN2008_FEATURES"/>
					<Add option="-DOPENFAST_DOUBLE_PRECISION"/>
					<Add directory="D:/Study/Graduation_Project/openfast/cmake-build-debug/ftnmods"/>
					<Add directory="C:/Software/msys64/mingw64/bin/../lib/gcc/x86_64-w64-mingw32/13.2.0/../../../../include/c++/13.2.0"/>
					<Add directory="C:/Software/msys64/mingw64/bin/../lib/gcc/x86_64-w64-mingw32/13.2.0/../../../../include/c++/13.2.0/x86_64-w64-mingw32"/>
					<Add directory="C:/Software/msys64/mingw64/bin/../lib/gcc/x86_64-w64-mingw32/13.2.0/../../../../include/c++/13.2.0/backward"/>
					<Add directory="C:/Software/msys64/mingw64/bin/../lib/gcc/x86_64-w64-mingw32/13.2.0/include"/>
					<Add directory="C:/Software/msys64/mingw64/bin/../lib/gcc/x86_64-w64-mingw32/13.2.0/../../../../include"/>
					<Add directory="C:/Software/msys64/mingw64/bin/../lib/gcc/x86_64-w64-mingw32/13.2.0/include-fixed"/>
				</Compiler>
				<MakeCommands>
					<Build command="C:/Software/msys64/mingw64/bin/mingw32-make.exe -f &quot;D:/Study/Graduation_Project/openfast/cmake-build-debug/modules/inflowwind/Makefile&quot;  VERBOSE=1 ifw_c_binding/fast"/>
					<CompileFile command="C:/Software/msys64/mingw64/bin/mingw32-make.exe -f &quot;D:/Study/Graduation_Project/openfast/cmake-build-debug/modules/inflowwind/Makefile&quot;  VERBOSE=1 &quot;$file&quot;"/>
					<Clean command="C:/Software/msys64/mingw64/bin/mingw32-make.exe -f &quot;D:/Study/Graduation_Project/openfast/cmake-build-debug/modules/inflowwind/Makefile&quot;  VERBOSE=1 clean"/>
					<DistClean command="C:/Software/msys64/mingw64/bin/mingw32-make.exe -f &quot;D:/Study/Graduation_Project/openfast/cmake-build-debug/modules/inflowwind/Makefile&quot;  VERBOSE=1 clean"/>
				</MakeCommands>
			</Target>
			<Target title="inflowwind_driver">
				<Option output="D:/Study/Graduation_Project/openfast/cmake-build-debug/modules/inflowwind/inflowwind_driver.exe" prefix_auto="0" extension_auto="0"/>
				<Option working_dir="D:/Study/Graduation_Project/openfast/cmake-build-debug/modules/inflowwind"/>
				<Option object_output="./"/>
				<Option type="1"/>
				<Option compiler="gcc"/>
				<Compiler>
					<Add option="-DHAS_FORTRAN2008_FEATURES"/>
					<Add option="-DOPENFAST_DOUBLE_PRECISION"/>
					<Add directory="D:/Study/Graduation_Project/openfast/cmake-build-debug/ftnmods"/>
					<Add directory="C:/Software/msys64/mingw64/bin/../lib/gcc/x86_64-w64-mingw32/13.2.0/../../../../include/c++/13.2.0"/>
					<Add directory="C:/Software/msys64/mingw64/bin/../lib/gcc/x86_64-w64-mingw32/13.2.0/../../../../include/c++/13.2.0/x86_64-w64-mingw32"/>
					<Add directory="C:/Software/msys64/mingw64/bin/../lib/gcc/x86_64-w64-mingw32/13.2.0/../../../../include/c++/13.2.0/backward"/>