CMakeFiles/turbsim.dir/src/BlankModVKM.f90.obj CMakeFiles/turbsim.dir/src/CohStructures.f90.obj CMakeFiles/turbsim.dir/src/Profiles.f90.obj CMakeFiles/turbsim.dir/src/RandNum.f90.obj CMakeFiles/turbsim.dir/src/Root_Searching.f90.obj CMakeFiles/turbsim.dir/src/TS_FileIO.f90.obj CMakeFiles/turbsim.dir/src/TSsubs.f90.obj CMakeFiles/turbsim.dir/src/TurbSim.f90.obj CMakeFiles/turbsim.dir/src/TurbSim_Types.f90.obj CMakeFiles/turbsim.dir/src/VelocitySpectra.f90.obj
